 xtb: 6.7.1 (edcfbbe)
          04152519433D

 15 14  0     0  0            999 V2000
   -1.2459   -0.9686    0.0346 C   0  0  0  0  0  0  0  0  0  0  0  0
   -0.4492    0.2888   -0.3031 C   0  0  0  0  0  0  0  0  0  0  0  0
   -1.1436    1.5370    0.2328 C   0  0  0  0  0  0  0  0  0  0  0  0
    0.9719    0.1851    0.2662 C   0  0  0  0  0  0  0  0  0  0  0  0
    1.7063   -0.8892   -0.2704 O   0  0  0  0  0  0  0  0  0  0  0  0
   -2.2096   -0.9603   -0.4693 H   0  0  0  0  0  0  0  0  0  0  0  0
   -1.4155   -1.0278    1.1073 H   0  0  0  0  0  0  0  0  0  0  0  0
   -0.6966   -1.8550   -0.2737 H   0  0  0  0  0  0  0  0  0  0  0  0
   -0.3704    0.3719   -1.3954 H   0  0  0  0  0  0  0  0  0  0  0  0
   -2.1482    1.6148   -0.1759 H   0  0  0  0  0  0  0  0  0  0  0  0
   -0.5913    2.4343   -0.0379 H   0  0  0  0  0  0  0  0  0  0  0  0
   -1.2159    1.4925    1.3172 H   0  0  0  0  0  0  0  0  0  0  0  0
    1.5056    1.1331    0.0983 H   0  0  0  0  0  0  0  0  0  0  0  0
    0.9310   -0.0002    1.3421 H   0  0  0  0  0  0  0  0  0  0  0  0
    1.7350   -0.7926   -1.2289 H   0  0  0  0  0  0  0  0  0  0  0  0
  1  2  1  0  0  0  0
  2  3  1  0  0  0  0
  2  4  1  0  0  0  0
  4  5  1  0  0  0  0
  1  6  1  0  0  0  0
  1  7  1  0  0  0  0
  1  8  1  0  0  0  0
  2  9  1  0  0  0  0
  3 10  1  0  0  0  0
  3 11  1  0  0  0  0
  3 12  1  0  0  0  0
  4 13  1  0  0  0  0
  4 14  1  0  0  0  0
  5 15  1  0  0  0  0
M  END
