27
 xtb: 6.7.1 (edcfbbe)
C            3.31726900123065       -0.31478447301494        0.90271910563485
C            1.95965078992366       -0.16864526670623        0.29500166580905
C            1.45519325319581        1.02990120712475       -0.05441848289662
C            0.09796297994770        1.21875751647480       -0.56703269705354
O           -0.35173288882766        2.34289800626459       -0.75319927828287
C           -0.77411539331045       -0.00902360225800       -0.82080005363481
H           -1.22742186168911        0.17649358051945       -1.80331094323251
C            0.05180502063839       -1.30080130564562       -0.91826158431124
C            1.16580802769214       -1.42900731036646        0.12293228832321
C           -1.96133177425577       -0.00962123492412        0.17944461537350
C           -3.05989901995629       -0.98062899366610       -0.25595865598718
C           -1.55465645086566       -0.27465887682427        1.63101840717952
H            3.79504623060111        0.65120487693618        1.07815768616364
H            3.96310691783444       -0.91426586203107        0.24902936844711
H            3.25340251754708       -0.85599743084014        1.85506783491482
H            2.03001378872509        1.94165793480568        0.08916685237305
H           -0.60215352140422       -2.17838667502119       -0.87603548236160
H            0.52522473730400       -1.31965843630659       -1.90742913081429
H            0.76956001698925       -1.71366077568375        1.10682965464919
H            1.84567210058943       -2.24303692100621       -0.16077838443237
H           -2.37020679152743        1.00729166996378        0.12421906659819
H           -3.38687432631594       -0.77978752166514       -1.28134980988236
H           -3.93127269705233       -0.88824339435865        0.40048849433144
H           -2.72465547428430       -2.02257919158698       -0.20404402314013
H           -1.26935533860185       -1.32168112207349        1.77959222825525
H           -2.39794414202196       -0.07408374853628        2.29959390372042
H           -0.72099893388539        0.36134641649607        1.94650251777045
