 xtb: 6.7.1 (edcfbbe)
          04152519253D

 18 17  0     0  0            999 V2000
    0.5309   -0.8906   -1.2573 C   0  0  0  0  0  0  0  0  0  0  0  0
    0.4027   -0.0204    0.0001 C   0  0  0  0  0  0  0  0  0  0  0  0
    1.5003    1.0480    0.0011 C   0  0  0  0  0  0  0  0  0  0  0  0
    0.5299   -0.8918    1.2568 C   0  0  0  0  0  0  0  0  0  0  0  0
   -0.8086    0.7367   -0.0001 O   0  0  0  0  0  0  0  0  0  0  0  0
   -2.0223    0.0311   -0.0003 C   0  0  0  0  0  0  0  0  0  0  0  0
    1.5378   -1.2939   -1.3208 H   0  0  0  0  0  0  0  0  0  0  0  0
   -0.1683   -1.7234   -1.2354 H   0  0  0  0  0  0  0  0  0  0  0  0
    0.3366   -0.2911   -2.1437 H   0  0  0  0  0  0  0  0  0  0  0  0
    1.3981    1.6754    0.8820 H   0  0  0  0  0  0  0  0  0  0  0  0
    1.3987    1.6764   -0.8792 H   0  0  0  0  0  0  0  0  0  0  0  0
    2.4837    0.5871    0.0011 H   0  0  0  0  0  0  0  0  0  0  0  0
    0.3347   -0.2932    2.1436 H   0  0  0  0  0  0  0  0  0  0  0  0
   -0.1692   -1.7246    1.2334 H   0  0  0  0  0  0  0  0  0  0  0  0
    1.5367   -1.2950    1.3208 H   0  0  0  0  0  0  0  0  0  0  0  0
   -2.1402   -0.5936   -0.8922 H   0  0  0  0  0  0  0  0  0  0  0  0
   -2.8010    0.7929   -0.0009 H   0  0  0  0  0  0  0  0  0  0  0  0
   -2.1409   -0.5928    0.8920 H   0  0  0  0  0  0  0  0  0  0  0  0
  1  2  1  0  0  0  0
  2  3  1  0  0  0  0
  2  4  1  0  0  0  0
  2  5  1  0  0  0  0
  5  6  1  0  0  0  0
  1  7  1  0  0  0  0
  1  8  1  0  0  0  0
  1  9  1  0  0  0  0
  3 10  1  0  0  0  0
  3 11  1  0  0  0  0
  3 12  1  0  0  0  0
  4 13  1  0  0  0  0
  4 14  1  0  0  0  0
  4 15  1  0  0  0  0
  6 16  1  0  0  0  0
  6 17  1  0  0  0  0
  6 18  1  0  0  0  0
M  END
