19
 xtb: 6.7.1 (edcfbbe)
C           -2.63501433393986       -1.54381495270731       -0.11168378840076
C           -1.96924546876061       -0.17656306483852        0.01098206655347
C           -0.45692791234020       -0.17963946445225       -0.01065561063324
C            0.30258188334896       -1.34327910310166       -0.13289571920111
C            1.69454182941038       -1.31070387734520       -0.14923662953254
C            2.35421715188122       -0.09115097182651       -0.04145979113522
C            1.62613049853977        1.08516663379092        0.08144732271456
C            0.23512670819408        1.03868806862588        0.09625676201979
O           -0.41704218692689        2.23770000375098        0.22031531982050
H           -3.72278662907863       -1.43743368249906       -0.08657400304038
H           -2.34371845065001       -2.20364015272519        0.71109809084640
H           -2.36748540420951       -2.03291742090215       -1.05312870866940
H           -2.31374594972825        0.29366634771515        0.94580997841055
H           -2.33898627990491        0.46191034245877       -0.80726418787400
H           -0.20168121466441       -2.29970687638836       -0.21770791127527
H            2.25626129706010       -2.23347899413997       -0.24573014551251
H            3.43874117298403       -0.05107934353315       -0.05262325245293
H            2.11584014847658        2.04932164896690        0.16721684007831
H           -1.36859303118151        2.08847542001674        0.21849262644220
