24
 xtb: 6.7.1 (edcfbbe)
C           -2.17030613115607       -0.89457583250491       -0.24630107481841
C           -1.15986750964172       -0.32475661329586        0.75745026928049
H           -1.71636463027939       -0.33501095213127        1.70948756137224
C           -0.74825746997422        1.13941069137932        0.52030125941615
H           -1.60379578183695        1.68827688782213        0.09384362930172
C            0.45373919718557        1.30186403545620       -0.41707122089973
H            0.83881129992079        2.32310659057107       -0.29275067002399
C            1.57541551396737        0.32183678074438       -0.04667954789406
H            2.32169491689463        0.30567954105959       -0.85277199709833
C            1.07435785862956       -1.12367108837112        0.12996187379040
H            1.85624221253740       -1.67837185644047        0.66002216568308
O           -0.04497712037826       -1.18378934367359        1.01233036030900
O            0.86730094171093       -1.76915113008022       -1.10172826247240
O            2.25902602642148        0.76765966356355        1.11410763667159
O           -0.02519890366989        1.13194740625853       -1.76314260524132
O           -0.32877362536140        1.75540027452458        1.74907893371238
O           -1.73033647071014       -1.00472633562382       -1.59557605282418
H           -3.08272863652960       -0.27853797268538       -0.18648523223964
H           -2.42407423771935       -1.90869138576107        0.07681725473182
H           -0.05964334965179       -1.62843109824768       -1.38620770986555
H            1.58801782365266        0.98190821025198        1.77905336699368
H            0.69963357966738        0.77880668407728       -2.29491059730298
H           -0.99282984583786        1.57528048931724        2.42389382058597
H           -1.38162745678633       -0.13274816950733       -1.86319863846177
