22
CONF2
C 1.5502398871 -0.4576651704 1.8571400374
C 2.9216323026 -0.5596367759 2.0289453401
C 3.7732072271 -0.2273281873 0.9827140916
C 3.2591926602 0.2182894010 -0.2412507954
C 1.8696418293 0.3182443067 -0.3947621511
C 1.0047093708 -0.0285435051 0.6484931225
C -0.4674407767 0.0790747327 0.5072650779
C -1.1298984548 1.1354618429 1.1235467483
C -2.5085673669 1.2639522328 1.0296594303
C -3.2599815962 0.3296420898 0.3109094284
C -2.6031319679 -0.7464931334 -0.3064203356
C -1.2127234808 -0.8687112842 -0.2014093894
Cl -0.3986380460 -2.2125359457 -0.9350790601
Cl -3.5149614488 -1.9203852104 -1.1860887271
Cl -4.9744357229 0.4916470447 0.1878139631
Cl -3.2774564377 2.6067195276 1.8180261600
Cl 1.2042065817 0.8990620042 -1.8887916689
Cl 4.3198662367 0.6454087344 -1.5361754719
Cl 5.4884836896 -0.3693393698 1.2215740051
H 0.8817361171 -0.7260997551 2.6680021562
H 3.3409069065 -0.8997148619 2.9679701431
H -0.5600449140 1.8749256917 1.6734953704
22
CONF1
C 1.5476073103 -1.0033066064 1.4900741542
C 2.9171861217 -1.1475642552 1.6337363383
C 3.7750940305 -0.5137398063 0.7418738456
C 3.2685087954 0.2671856839 -0.3031289369
C 1.8780813498 0.3983615476 -0.4335413128
C 1.0092643282 -0.2315904881 0.4619769752
C -0.4615343136 -0.0782973813 0.3433301368
C -1.0716664052 1.0696030315 0.8376633223
C -2.4457232823 1.2351441934 0.7552865166
C -3.2469985383 0.2457347883 0.1750882689
C -2.6424761467 -0.9165653021 -0.3269221365
C -1.2527060094 -1.0701655719 -0.2421358616
Cl -0.4933149365 -2.4921288190 -0.8858287841
Cl -3.6112245100 -2.1514630809 -1.0489944303
Cl -4.9584101621 0.4500226005 0.0784667979
Cl -3.1506720376 2.6912170915 1.3863924699
Cl 1.2168061285 1.3393687212 -1.7357699089
Cl 4.3346834868 1.0525556957 -1.4131487438
Cl 5.4894877674 -0.7080973096 0.9474698277
H 0.8752454207 -1.4996192819 2.1813425220
H 3.3319468837 -1.7485367696 2.4335204162
H -0.4648363130 1.8472149720 1.2859656553
