12
CONF1
C -0.1449240063 -1.2034427510 -0.0000101441
C -1.5328395222 -1.1424029974 0.0000487205
N -2.2268850293 -0.0000223652 0.0000620865
C -1.5329684162 1.1424302260 0.0000181167
C -0.1450672679 1.2036345331 -0.0000310900
C 0.5659227258 0.0001461128 -0.0000664693
C 1.9914633428 0.0004582077 -0.0005241857
N 3.1486396187 -0.0008950925 0.0005969167
H 0.3758605333 -2.1538413788 -0.0000558486
H -2.1162296182 -2.0610179858 0.0000501373
H -2.1164343830 2.0609918867 0.0000158570
H 0.3756293559 2.1540813017 -0.0000897453
