14
 xtb: 6.7.1 (edcfbbe)
C           -2.57089347801960       -0.57955581812054       -0.26653647827176
C           -1.39050104176865        0.28097754640327        0.11858265560478
O           -0.18812084846222       -0.46988883145697       -0.20361949142767
C            0.97752462475722        0.16764409443762        0.05858591852286
O            1.04228649190003        1.28447589730254        0.51669227227510
C            2.16113555271969       -0.70272831470551       -0.26440155139963
H           -3.50084386568781       -0.04926665931962       -0.04211893238425
H           -2.55368711101185       -0.80858486316355       -1.33536406225724
H           -2.56704823383783       -1.52032755374092        0.29028344616624
H           -1.37971299995693        0.51595054317374        1.18809069732923
H           -1.36992919019293        1.22679803446379       -0.43253331631393
H            2.51612085060758       -1.15833095908704        0.66563792203498
H            2.96504847719549       -0.07970742415333       -0.65869138981310
H            1.90382680234385       -1.49636569877450       -0.96617431008909
