22
CONF1
C -1.5197809965 -0.8362893719 0.7542038391
C -0.8082212362 0.1349881791 0.0505595061
C -1.4929478512 1.1439331151 -0.6246586181
C -2.8801520696 1.1719460659 -0.6028273400
C -3.6118824372 0.2039907860 0.0920510091
C -2.9053645852 -0.7962131321 0.7706070630
Cl -3.7627951139 -2.0208355180 1.6673455787
Cl -5.3418028063 0.2439941684 0.1177498703
Cl -3.7007882875 2.4439485032 -1.4664083846
C 0.6721427838 0.1497655665 0.0578722006
C 1.3181929378 1.3003882511 0.5073143586
C 2.7005059055 1.3756096109 0.5413119913
C 3.4833825321 0.2966561490 0.1255190580
C 2.8482573028 -0.8620987371 -0.3402032991
C 1.4508276064 -0.9297248435 -0.3764487702
Cl 0.6851204322 -2.3489927965 -1.0310150728
Cl 3.8017855909 -2.2014324543 -0.8831337262
Cl 5.2095272982 0.3890127933 0.1793461332
Cl 3.4435151287 2.8373356649 1.1238389744
H -1.0017863877 -1.6100971294 1.3076357402
H -0.9483504047 1.9017559915 -1.1756915876
H 0.7263008271 2.1410160366 0.8502013023
