 xtb: 6.7.1 (edcfbbe)
          04152519583D

 18 18  0     0  0            999 V2000
   -2.7582   -0.7649    0.0008 C   0  0  0  0  0  0  0  0  0  0  0  0
   -1.7977    0.2581   -0.0184 O   0  0  0  0  0  0  0  0  0  0  0  0
   -0.4673   -0.1014    0.0004 C   0  0  0  0  0  0  0  0  0  0  0  0
    0.0048   -1.4001    0.0090 C   0  0  0  0  0  0  0  0  0  0  0  0
    1.3716   -1.6497    0.0090 C   0  0  0  0  0  0  0  0  0  0  0  0
    2.2672   -0.6003   -0.0052 C   0  0  0  0  0  0  0  0  0  0  0  0
    1.8030    0.7043   -0.0154 C   0  0  0  0  0  0  0  0  0  0  0  0
    0.4415    0.9764   -0.0072 C   0  0  0  0  0  0  0  0  0  0  0  0
   -0.0390    2.2706    0.0623 N   0  0  0  0  0  0  0  0  0  0  0  0
   -2.6766   -1.3768    0.9052 H   0  0  0  0  0  0  0  0  0  0  0  0
   -2.6796   -1.4098   -0.8813 H   0  0  0  0  0  0  0  0  0  0  0  0
   -3.7252   -0.2632   -0.0067 H   0  0  0  0  0  0  0  0  0  0  0  0
   -0.6796   -2.2339    0.0132 H   0  0  0  0  0  0  0  0  0  0  0  0
    1.7232   -2.6701    0.0168 H   0  0  0  0  0  0  0  0  0  0  0  0
    3.3298   -0.7906   -0.0108 H   0  0  0  0  0  0  0  0  0  0  0  0
    2.4986    1.5311   -0.0270 H   0  0  0  0  0  0  0  0  0  0  0  0
    0.5730    2.9879   -0.2918 H   0  0  0  0  0  0  0  0  0  0  0  0
   -1.0073    2.3701   -0.1978 H   0  0  0  0  0  0  0  0  0  0  0  0
  1  2  1  0  0  0  0
  2  3  1  0  0  0  0
  3  4  4  0  0  0  0
  4  5  4  0  0  0  0
  5  6  4  0  0  0  0
  6  7  4  0  0  0  0
  3  8  4  0  0  0  0
  7  8  4  0  0  0  0
  8  9  1  0  0  0  0
  1 10  1  0  0  0  0
  1 11  1  0  0  0  0
  1 12  1  0  0  0  0
  4 13  1  0  0  0  0
  5 14  1  0  0  0  0
  6 15  1  0  0  0  0
  7 16  1  0  0  0  0
  9 17  1  0  0  0  0
  9 18  1  0  0  0  0
M  END
