17
CONF1
C 2.7818682822 -0.0000786844 -0.7359019253
C 1.9924289416 0.0001410717 0.5806983979
C 0.5096026987 0.0000553671 0.3311957983
C -0.2054650009 1.1885523139 0.1829170757
C -1.5657010990 1.1372595650 -0.1002940589
N -2.2536769252 -0.0000847467 -0.2445884498
C -1.5656039592 -1.1373591734 -0.1001970426
C -0.2053546679 -1.1885157338 0.1829757181
H 2.5383078850 -0.8841279317 -1.3328963005
H 3.8589535715 0.0002198175 -0.5448314386
H 2.5379095522 0.8835102378 -1.3334170194
H 2.2641429021 0.8821248967 1.1712335888
H 2.2642029171 -0.8816014014 1.1715680743
H 0.2921088133 2.1485443526 0.2907463322
H -2.1335025890 2.0595198767 -0.2152769555
H -2.1333029338 -2.0596757699 -0.2152300754
H 0.2923078881 -2.1484582853 0.2908339817
17
CONF2
C 2.8820828758 -0.7474118585 -0.1119162845
C 2.0004001058 0.4778551975 0.1004067128
C 0.5109399676 0.2377196120 0.0465828131
C -0.3724233013 1.3034317526 0.2424937254
C -1.7408857679 1.0807416301 0.1915203956
N -2.2919133678 -0.1176949367 -0.0387154491
C -1.4470064610 -1.1332293405 -0.2252125380
C -0.0593872199 -1.0103804039 -0.1929264057
H 2.6958293719 -1.5120668434 0.6486276074
H 3.9371764179 -0.4679538405 -0.0508766415
H 2.7136738886 -1.1974369600 -1.0951940700
H 2.2461281481 1.2419116630 -0.6486994955
H 2.2337545442 0.9351397688 1.0707339721
H 0.0083038672 2.3032398085 0.4341061842
H -2.4345725934 1.9064766852 0.3435434556
H -1.8997144729 -2.1062853807 -0.4121384359
H 0.5564456519 -1.8880106453 -0.3543433638
