13
CONF1
C -1.9543575304 0.1411997864 -0.0001058369
C -0.5799457331 -0.5261255823 0.0002788478
C 0.5624930430 0.4934618243 0.0000834386
N 1.9221390617 -0.0620064703 -0.0001483937
H -2.7609111442 -0.5976008212 0.0005846058
H -2.0820096329 0.7761954288 0.8832697746
H -2.0821966475 0.7747524018 -0.8844872894
H -0.4806396159 -1.1762785938 -0.8795114077
H -0.4808341536 -1.1757452749 0.8804827206
H 0.4641173554 1.1470206282 -0.8773480284
H 0.4644373420 1.1469947269 0.8775679371
H 2.0423236541 -0.6627369452 0.8093158321
H 2.0418038932 -0.6633276591 -0.8092483258
13
CONF3
C -1.9497814826 0.1009358469 0.0223637312
C -0.5606160687 -0.5330828424 0.0129867376
C 0.5514395799 0.5102153949 0.0033899102
N 1.8710417273 -0.1401109316 0.0170530219
H -2.1011625354 0.7353895343 -0.8576741244
H -2.7349017018 -0.6604134734 0.0238505317
H -2.0896684119 0.7262768652 0.9107632035
H -0.4552849759 -1.1780836032 -0.8703154487
H -0.4269568478 -1.1791841093 0.8881051432
H 0.3972305470 1.1875325549 -0.8570265665
H 0.4696495010 1.1275850277 0.9079188402
H 2.6026889933 0.5618333775 0.0282456619
H 1.9975544116 -0.6615550685 -0.8446439156
13
CONF2
C -1.5852288885 0.1311784281 -0.5145693749
C -0.6716397425 -0.4834192207 0.5438617915
C 0.6970529278 0.2037642850 0.6426674095
N 1.5435955959 0.1458504562 -0.5557873859
H -1.1576856892 0.0371476114 -1.5183764095
H -2.5624349658 -0.3602722045 -0.5314061059
H -1.7497374764 1.1968475059 -0.3182203086
H -0.5218192479 -1.5510095750 0.3314319235
H -1.1609851661 -0.4295238439 1.5256190236
H 0.5523664412 1.2624076036 0.8974402958
H 1.2617062199 -0.2376753723 1.4737980299
H 1.6578602976 -0.8200284562 -0.8467265388
H 1.0864967265 0.6198636449 -1.3266936654
13
CONF5
C -1.5796972907 0.0583578968 0.5337009309
C -0.6557400914 -0.4877720817 -0.5541710498
C 0.6772915162 0.2515907361 -0.6387007433
N 1.4494873567 0.0949005606 0.6051897712
H -1.7535580781 1.1327113294 0.4003921220
H -2.5526420551 -0.4413596402 0.5119813634
H -1.1604131883 -0.0988950789 1.5326139968
H -1.1542886583 -0.4107720059 -1.5285785420
H -0.4583359799 -1.5510999519 -0.3737358091
H 1.2708248371 -0.1782281069 -1.4549470826
H 0.4825083751 1.3071542745 -0.9059614600
H 1.0022698380 0.6148511132 1.3526014927
H 2.3666058537 0.5123177530 0.4924584851
13
CONF4
C -1.5723335295 0.1238458002 0.5497089027
C -0.6689658384 -0.4753046066 -0.5260444595
C 0.6774827107 0.2358951195 -0.6494642116
N 1.4518570715 0.1058722338 0.5962408836
H -2.5211296048 -0.4173436753 0.6172844764
H -1.0838665970 0.0927223119 1.5265129900
H -1.7980497337 1.1720752419 0.3240053772
H -1.1700846040 -0.4381317064 -1.5012959918
H -0.4916792786 -1.5394204158 -0.3146601166
H 1.2074559818 -0.1495661542 -1.5384395531
H 0.5014032654 1.3060450383 -0.8232318517
H 1.7236625333 -0.8642011979 0.7226659370
H 2.3156365133 0.6316344730 0.5236511273
