 xtb: 6.7.1 (edcfbbe)
          04162511253D

 24 24  0     0  0            999 V2000
   -2.1324   -0.8746   -0.3217 C   0  0  0  0  0  0  0  0  0  0  0  0
   -1.1917   -0.3302    0.7748 C   0  0  0  0  0  0  0  0  0  0  0  0
   -1.7747   -0.3637    1.7055 H   0  0  0  0  0  0  0  0  0  0  0  0
   -0.7647    1.1414    0.5920 C   0  0  0  0  0  0  0  0  0  0  0  0
   -1.6325    1.7291    0.2648 H   0  0  0  0  0  0  0  0  0  0  0  0
    0.3861    1.3123   -0.4218 C   0  0  0  0  0  0  0  0  0  0  0  0
    0.8107    2.3154   -0.2504 H   0  0  0  0  0  0  0  0  0  0  0  0
    1.5088    0.2940   -0.1399 C   0  0  0  0  0  0  0  0  0  0  0  0
    2.1359    0.2115   -1.0383 H   0  0  0  0  0  0  0  0  0  0  0  0
    1.0219   -1.1429    0.1966 C   0  0  0  0  0  0  0  0  0  0  0  0
    1.8280   -1.6016    0.7860 H   0  0  0  0  0  0  0  0  0  0  0  0
   -0.0789   -1.1581    1.0662 O   0  0  0  0  0  0  0  0  0  0  0  0
    0.8697   -1.9284   -0.9282 O   0  0  0  0  0  0  0  0  0  0  0  0
    2.2568    0.7170    0.9790 O   0  0  0  0  0  0  0  0  0  0  0  0
   -0.0384    1.2095   -1.7676 O   0  0  0  0  0  0  0  0  0  0  0  0
   -0.3756    1.6882    1.8242 O   0  0  0  0  0  0  0  0  0  0  0  0
   -1.5863   -1.0136   -1.6083 O   0  0  0  0  0  0  0  0  0  0  0  0
   -3.0173   -0.2224   -0.3507 H   0  0  0  0  0  0  0  0  0  0  0  0
   -2.4481   -1.8786   -0.0280 H   0  0  0  0  0  0  0  0  0  0  0  0
   -0.0113   -1.7697   -1.3294 H   0  0  0  0  0  0  0  0  0  0  0  0
    2.7395    1.5235    0.7642 H   0  0  0  0  0  0  0  0  0  0  0  0
   -0.5214    2.0078   -2.0095 H   0  0  0  0  0  0  0  0  0  0  0  0
    0.3684    1.1634    2.1573 H   0  0  0  0  0  0  0  0  0  0  0  0
   -1.1500   -0.1814   -1.8743 H   0  0  0  0  0  0  0  0  0  0  0  0
  1  2  1  0  0  0  0
  2  3  1  0  0  0  0
  2  4  1  0  0  0  0
  4  5  1  0  0  0  0
  4  6  1  0  0  0  0
  6  7  1  0  0  0  0
  6  8  1  0  0  0  0
  8  9  1  0  0  0  0
  8 10  1  0  0  0  0
 10 11  1  0  0  0  0
  2 12  1  0  0  0  0
 10 12  1  0  0  0  0
 10 13  1  0  0  0  0
  8 14  1  0  0  0  0
  6 15  1  0  0  0  0
  4 16  1  0  0  0  0
  1 17  1  0  0  0  0
  1 18  1  0  0  0  0
  1 19  1  0  0  0  0
 13 20  1  0  0  0  0
 14 21  1  0  0  0  0
 15 22  1  0  0  0  0
 16 23  1  0  0  0  0
 17 24  1  0  0  0  0
M  END
