 xtb: 6.7.1 (edcfbbe)
          04152520073D

 20 20  0     0  0            999 V2000
   -3.6480   -0.0347   -0.0103 C   0  0  0  0  0  0  0  0  0  0  0  0
   -2.1518   -0.0214    0.0075 C   0  0  0  0  0  0  0  0  0  0  0  0
   -1.4255   -1.2071    0.0051 C   0  0  0  0  0  0  0  0  0  0  0  0
   -0.0441   -1.1997    0.0021 C   0  0  0  0  0  0  0  0  0  0  0  0
    0.6531    0.0073    0.0010 C   0  0  0  0  0  0  0  0  0  0  0  0
   -0.0770    1.1979    0.0030 C   0  0  0  0  0  0  0  0  0  0  0  0
   -1.4552    1.1834    0.0063 C   0  0  0  0  0  0  0  0  0  0  0  0
    2.1332    0.1011   -0.0015 C   0  0  0  0  0  0  0  0  0  0  0  0
    2.6993    1.1727   -0.0038 O   0  0  0  0  0  0  0  0  0  0  0  0
    2.9067   -1.1963   -0.0016 C   0  0  0  0  0  0  0  0  0  0  0  0
   -4.0354   -0.9866    0.3444 H   0  0  0  0  0  0  0  0  0  0  0  0
   -4.0488    0.7652    0.6086 H   0  0  0  0  0  0  0  0  0  0  0  0
   -4.0067    0.1201   -1.0285 H   0  0  0  0  0  0  0  0  0  0  0  0
   -1.9524   -2.1510    0.0068 H   0  0  0  0  0  0  0  0  0  0  0  0
    0.4832   -2.1410    0.0018 H   0  0  0  0  0  0  0  0  0  0  0  0
    0.4682    2.1300    0.0031 H   0  0  0  0  0  0  0  0  0  0  0  0
   -2.0036    2.1145    0.0090 H   0  0  0  0  0  0  0  0  0  0  0  0
    2.6613   -1.7789    0.8836 H   0  0  0  0  0  0  0  0  0  0  0  0
    3.9713   -0.9768   -0.0035 H   0  0  0  0  0  0  0  0  0  0  0  0
    2.6586   -1.7803   -0.8852 H   0  0  0  0  0  0  0  0  0  0  0  0
  1  2  1  0  0  0  0
  2  3  4  0  0  0  0
  3  4  4  0  0  0  0
  4  5  4  0  0  0  0
  5  6  4  0  0  0  0
  2  7  4  0  0  0  0
  6  7  4  0  0  0  0
  5  8  1  0  0  0  0
  8  9  2  0  0  0  0
  8 10  1  0  0  0  0
  1 11  1  0  0  0  0
  1 12  1  0  0  0  0
  1 13  1  0  0  0  0
  3 14  1  0  0  0  0
  4 15  1  0  0  0  0
  6 16  1  0  0  0  0
  7 17  1  0  0  0  0
 10 18  1  0  0  0  0
 10 19  1  0  0  0  0
 10 20  1  0  0  0  0
M  END
