15
 xtb: 6.7.1 (edcfbbe)
C           -2.67790678470074       -0.13100588826992       -0.00087298688692
O           -1.36406012190212       -0.72695443916038        0.00086834383225
C           -0.30127438256905        0.11870119762345        0.00045585798837
O           -0.38347992838162        1.32748928229284       -0.00103075051852
C            0.96503865188706       -0.64447462473682        0.00147467952350
C            2.13294006590626       -0.02765147311610       -0.74500431775279
C            2.13426523833883       -0.02397184744644        0.74253552870484
H           -3.19559471457212       -0.46915438141006       -0.90177321760286
H           -2.60463522376317        0.95763552014521        0.01195606153475
H           -3.20562620650419       -0.49035199194792        0.88575672802713
H            0.87180226210168       -1.72360857499621        0.00404539773835
H            2.78935910813081       -0.71513175700213       -1.26624341491861
H            1.92941349742936        0.91219789837983       -1.24571443964455
H            2.79169982175709       -0.70884579339101        1.26592132465741
H            1.93162086644256        0.91835107178983        1.23893778044293
