 xtb: 6.7.1 (edcfbbe)
          04162510203D

 12 11  0     0  0            999 V2000
   -1.8802   -0.6911   -0.1881 C   0  0  0  0  0  0  0  0  0  0  0  0
   -0.9610    0.4555    0.2094 C   0  0  0  0  0  0  0  0  0  0  0  0
    0.5029    0.0912    0.0150 C   0  0  0  0  0  0  0  0  0  0  0  0
    0.8946   -0.9718   -0.4034 O   0  0  0  0  0  0  0  0  0  0  0  0
    1.3582    1.0875    0.3600 N   0  0  0  0  0  0  0  0  0  0  0  0
   -1.7236   -0.9501   -1.2317 H   0  0  0  0  0  0  0  0  0  0  0  0
   -1.6602   -1.5704    0.4112 H   0  0  0  0  0  0  0  0  0  0  0  0
   -2.9216   -0.4143   -0.0434 H   0  0  0  0  0  0  0  0  0  0  0  0
   -1.1128    0.7176    1.2594 H   0  0  0  0  0  0  0  0  0  0  0  0
   -1.1768    1.3416   -0.3929 H   0  0  0  0  0  0  0  0  0  0  0  0
    1.0406    1.9737    0.7078 H   0  0  0  0  0  0  0  0  0  0  0  0
    2.3477    0.9332    0.2629 H   0  0  0  0  0  0  0  0  0  0  0  0
  1  2  1  0  0  0  0
  2  3  1  0  0  0  0
  3  4  2  0  0  0  0
  3  5  4  0  0  0  0
  1  6  1  0  0  0  0
  1  7  1  0  0  0  0
  1  8  1  0  0  0  0
  2  9  1  0  0  0  0
  2 10  1  0  0  0  0
  5 11  1  0  0  0  0
  5 12  1  0  0  0  0
M  END
