 xtb: 6.7.1 (edcfbbe)
          04152520263D

 10  9  0     0  0            999 V2000
    1.8569    0.1707    0.1915 C   0  0  0  0  0  0  0  0  0  0  0  0
    0.7099   -0.1173   -0.3931 C   0  0  0  0  0  0  0  0  0  0  0  0
   -0.5603   -0.4282    0.3427 C   0  0  0  0  0  0  0  0  0  0  0  0
   -1.6699    0.2838   -0.1638 O   0  0  0  0  0  0  0  0  0  0  0  0
    2.7480    0.3838   -0.3735 H   0  0  0  0  0  0  0  0  0  0  0  0
    1.9558    0.1899    1.2650 H   0  0  0  0  0  0  0  0  0  0  0  0
    0.6191   -0.1304   -1.4711 H   0  0  0  0  0  0  0  0  0  0  0  0
   -0.4335   -0.2376    1.4183 H   0  0  0  0  0  0  0  0  0  0  0  0
   -0.8154   -1.4846    0.2064 H   0  0  0  0  0  0  0  0  0  0  0  0
   -1.4784    1.2269   -0.1162 H   0  0  0  0  0  0  0  0  0  0  0  0
  1  2  2  0  0  0  0
  2  3  1  0  0  0  0
  3  4  1  0  0  0  0
  1  5  1  0  0  0  0
  1  6  1  0  0  0  0
  2  7  1  0  0  0  0
  3  8  1  0  0  0  0
  3  9  1  0  0  0  0
  4 10  1  0  0  0  0
M  END
