19
CONF1
C -2.4653572753 -1.1289457204 0.4504687329
C -1.7240549544 0.0954266241 -0.0155276960
C -2.3832803029 1.1823588492 -0.4366001188
C -0.2446213802 0.0429072279 -0.0051156080
C 0.5174809752 1.1979071051 0.2233746492
C 1.9049924481 1.1545774624 0.2141410641
C 2.5690466640 -0.0477107425 -0.0161999357
C 1.8285594380 -1.2060036108 -0.2264295717
C 0.4388054141 -1.1630308163 -0.2125353004
H -2.0960127808 -1.4655842297 1.4243997088
H -3.5348479522 -0.9269458627 0.5283997137
H -2.3357777714 -1.9630311872 -0.2476989458
H -1.8645226601 2.0508478226 -0.8273562768
H -3.4676687023 1.2180462266 -0.4249371976
H 0.0110356201 2.1328962499 0.4388900685
H 2.4717801945 2.0611598389 0.4015615580
H 3.6535191560 -0.0823414236 -0.0202711326
H 2.3344379295 -2.1502184923 -0.4019886753
H -0.1186731270 -2.0773431490 -0.3837660207
19
CONF2
C -2.3948253681 -0.4075884258 -1.2011535751
C -1.7338474804 0.0616717423 0.0637693185
C -2.4103235881 0.4844862396 1.1319962660
C -0.2442273931 0.0265149479 0.0553289992
C 0.4900899735 1.1346733334 -0.3752907271
C 1.8808356068 1.0936124043 -0.4041373641
C 2.5548571513 -0.0579211453 -0.0081458825
C 1.8312767487 -1.1678630565 0.4182743358
C 0.4406268591 -1.1272124054 0.4463114209
H -2.0989300354 -1.4393512740 -1.4266872511
H -3.4842438980 -0.3585823031 -1.1302877627
H -2.0657084288 0.2012282901 -2.0520439076
H -1.8945604546 0.8150491841 2.0279458304
H -3.4962899289 0.5098428419 1.1375914302
H -0.0372866792 2.0343656181 -0.6789050222
H 2.4389815796 1.9645031142 -0.7336836201
H 3.6394667192 -0.0896003208 -0.0299665091
H 2.3506900880 -2.0675811793 0.7333678279
H -0.1251734593 -1.9907747826 0.7838853283
