 xtb: 6.7.1 (edcfbbe)
          04152519433D

 12 11  0     0  0            999 V2000
   -1.9553    0.1467   -0.0036 C   0  0  0  0  0  0  0  0  0  0  0  0
   -0.5905   -0.5280    0.0205 C   0  0  0  0  0  0  0  0  0  0  0  0
    0.5440    0.4959   -0.0276 C   0  0  0  0  0  0  0  0  0  0  0  0
    1.8195   -0.0958    0.0524 O   0  0  0  0  0  0  0  0  0  0  0  0
   -2.0719    0.7403   -0.9079 H   0  0  0  0  0  0  0  0  0  0  0  0
   -2.7475   -0.5973    0.0241 H   0  0  0  0  0  0  0  0  0  0  0  0
   -2.0702    0.8046    0.8545 H   0  0  0  0  0  0  0  0  0  0  0  0
   -0.4999   -1.2031   -0.8359 H   0  0  0  0  0  0  0  0  0  0  0  0
   -0.4857   -1.1250    0.9288 H   0  0  0  0  0  0  0  0  0  0  0  0
    0.4583    1.1003   -0.9435 H   0  0  0  0  0  0  0  0  0  0  0  0
    0.4819    1.1669    0.8324 H   0  0  0  0  0  0  0  0  0  0  0  0
    1.9098   -0.7331   -0.6649 H   0  0  0  0  0  0  0  0  0  0  0  0
  1  2  1  0  0  0  0
  2  3  1  0  0  0  0
  3  4  1  0  0  0  0
  1  5  1  0  0  0  0
  1  6  1  0  0  0  0
  1  7  1  0  0  0  0
  2  8  1  0  0  0  0
  2  9  1  0  0  0  0
  3 10  1  0  0  0  0
  3 11  1  0  0  0  0
  4 12  1  0  0  0  0
M  END
