15
 xtb: 6.7.1 (edcfbbe)
C           -0.34521345897517       -1.07580418591833       -0.00022267444258
C            1.03286443600930       -1.14314793556956        0.00000146625433
C            1.78148771743640        0.04052593813879        0.00002276857017
C            1.14615615807073        1.28488619848894       -0.00019557833545
C           -0.23889451431352        1.33766901054383       -0.00046895927617
C           -0.99911672202343        0.16518160506977       -0.00038914537050
C           -2.46451165331625        0.24417383162646        0.00036267524159
O           -3.21305624737193       -0.71295401424903        0.00047245312780
O            3.13502403561273       -0.08847112431743        0.00025579937502
H           -0.94870700108288       -1.97764976412119       -0.00009913360970
H            1.55701462393558       -2.09237256265098        0.00021130602734
H            1.73463481744427        2.19873884769615       -0.00012926269903
H           -0.74232438633388        2.30116454334995       -0.00058243673709
H           -2.86866339846785        1.28381213430173       -0.00165028084578
H            3.54172186841998        0.78612858719824        0.00027583904527
