 xtb: 6.7.1 (edcfbbe)
          04162510273D

 15 14  0     0  0            999 V2000
   -2.1921    0.0805   -0.4388 C   0  0  0  0  0  0  0  0  0  0  0  0
   -1.0307    0.4601    0.4801 C   0  0  0  0  0  0  0  0  0  0  0  0
   -0.0060   -0.6307    0.5205 C   0  0  0  0  0  0  0  0  0  0  0  0
    1.2671   -0.5641    0.1632 C   0  0  0  0  0  0  0  0  0  0  0  0
    2.0114    0.6220   -0.3573 C   0  0  0  0  0  0  0  0  0  0  0  0
   -1.8355   -0.0654   -1.4561 H   0  0  0  0  0  0  0  0  0  0  0  0
   -2.9462    0.8644   -0.4450 H   0  0  0  0  0  0  0  0  0  0  0  0
   -2.6578   -0.8438   -0.1035 H   0  0  0  0  0  0  0  0  0  0  0  0
   -0.5934    1.3990    0.1420 H   0  0  0  0  0  0  0  0  0  0  0  0
   -1.4161    0.6163    1.4924 H   0  0  0  0  0  0  0  0  0  0  0  0
   -0.3924   -1.5780    0.8772 H   0  0  0  0  0  0  0  0  0  0  0  0
    1.8745   -1.4573    0.2511 H   0  0  0  0  0  0  0  0  0  0  0  0
    2.4585    0.3821   -1.3220 H   0  0  0  0  0  0  0  0  0  0  0  0
    2.8218    0.8785    0.3253 H   0  0  0  0  0  0  0  0  0  0  0  0
    1.3727    1.4913   -0.4779 H   0  0  0  0  0  0  0  0  0  0  0  0
  1  2  1  0  0  0  0
  2  3  1  0  0  0  0
  3  4  2  0  0  0  0
  4  5  1  0  0  0  0
  1  6  1  0  0  0  0
  1  7  1  0  0  0  0
  1  8  1  0  0  0  0
  2  9  1  0  0  0  0
  2 10  1  0  0  0  0
  3 11  1  0  0  0  0
  4 12  1  0  0  0  0
  5 13  1  0  0  0  0
  5 14  1  0  0  0  0
  5 15  1  0  0  0  0
M  END
