19
 xtb: 6.7.1 (edcfbbe)
C           -2.84270238909082        1.34811806944648       -0.24817079259482
C           -2.37872864055164       -0.04210716448090        0.17525228120679
C           -0.88877049038558       -0.29753100312883        0.10114651802521
C           -0.41617528538159       -1.61244569179089        0.16703239584954
C            0.94817323604817       -1.87463690778607        0.12337570159880
C            1.87120571115384       -0.84184276240922        0.00955378070719
C            1.40519196704488        0.46714669380548       -0.05908824433840
C            0.03666018455434        0.73931226600907       -0.01351130220176
O            2.34060000572966        1.46183307844805       -0.17423314711845
H           -3.93493297747093        1.40220566206115       -0.23617735961546
H           -2.50477356689958        1.58744644399764       -1.26171685718994
H           -2.47141529508626        2.12518053521550        0.42732227174436
H           -2.88204522750958       -0.79638365578230       -0.44177032712931
H           -2.71018593554157       -0.23496558325424        1.20484822201482
H           -1.12419509258719       -2.43166787861514        0.25181521995217
H            1.30216514735636       -2.89968952790588        0.17299335660603
H            2.93787619403760       -1.03057422992450       -0.03034241080899
H           -0.30058402401791        1.77061750622528       -0.07349014608137
H            1.88896806599814        2.31234106404299       -0.21206194968527
