14
CONF11
C -2.4821548229 0.0717160827 0.3745989951
C -1.2344147390 0.6968708479 -0.2323752782
C 0.0326122306 0.0071586597 0.2134019039
O 0.0941363056 -0.9540134149 0.9438177846
O 1.1215911156 0.6126456289 -0.3203860158
C 2.3847632604 0.0211157607 0.0498876540
H -2.4474206145 0.1149297656 1.4659313666
H -3.3767696906 0.5992541849 0.0330961694
H -2.5682447779 -0.9801034262 0.0915363137
H -1.1449969707 1.7582461946 0.0282300249
H -1.2598219356 0.6656947944 -1.3285529965
H 3.1453545302 0.6236265364 -0.4466269487
H 2.4332130305 -1.0176554614 -0.2876204329
H 2.5157667438 0.0498762769 1.1348889958
