13
CONF1
C -1.9412883640 -1.2105640291 0.0000292815
C -0.5511825685 -1.2118682656 0.0001512820
C 0.1290526745 0.0000714596 0.0001883450
C -0.5497145539 1.2114091581 0.0001069010
C -1.9410376383 1.2091958436 -0.0000154479
C -2.6345213321 -0.0006315120 -0.0000481948
O -4.0073375329 -0.0560622742 -0.0001799856
Br 2.0494918889 -0.0001530637 0.0003979660
H -2.4897147748 -2.1464590990 0.0000005709
H -0.0133623709 -2.1526877926 0.0002322930
H -0.0131498825 2.1529791753 0.0001454563
H -2.4869864621 2.1481575679 -0.0000841583
H -4.3584303098 0.8456877959 -0.0002136162
