13
CONF1
C -1.9340442224 -1.2087278606 -0.0000152625
C -0.5426917836 -1.2102562900 -0.0000597561
C 0.1381987154 -0.0005983070 -0.0000733506
C -0.5485670155 1.2085146352 -0.0000505568
C -1.9370595716 1.2070674379 -0.0000075429
C -2.6327899235 -0.0015185184 0.0000133287
O -3.9968611933 0.0627337957 0.0000595579
Br 2.0515261657 0.0028211333 -0.0001415431
H -2.4715912707 -2.1537854795 0.0000002388
H 0.0014735543 -2.1473367326 -0.0000772634
H -0.0051882214 2.1461363193 -0.0000624119
H -2.4929452097 2.1382625446 0.0000136893
H -4.3585482676 -0.8304906640 0.0000572061
