13
CONF1
C 0.4079261969 -1.2814156147 0.0000477504
C 1.7674643603 -0.9830818143 -0.0001592865
N 2.2440528787 0.2647102395 -0.0001457620
C 1.3564305500 1.2691143623 0.0000463795
C -0.0185226065 1.0794066535 0.0002111935
C -0.5044731017 -0.2283240922 0.0001939232
C -1.9612861407 -0.5038129964 0.0001809352
O -2.8142613287 0.3548520805 -0.0000439604
H 0.0652197699 -2.3128377347 0.0000685212
H 2.5074746283 -1.7814859553 -0.0003505208
H 1.7729842363 2.2747172041 0.0000796832
H -0.7128724682 1.9130041883 0.0003166624
H -2.2302056655 -1.5848579040 0.0011214491
