8
CONF1
C -0.0000552240 0.0000753208 -1.8398848329
C 0.0000500802 0.0000784054 -0.3353269774
Cl -1.6343417415 0.4388246182 0.3060382687
Cl 0.4357251952 -1.6351815576 0.3059304909
Cl 1.1979455066 1.1956680217 0.3041344140
H -0.2656525318 0.9951616409 -2.2041320855
H 0.9944934116 -0.2673792745 -2.2042380228
H -0.7287621322 -0.7272193877 -2.2046812337
