8
CONF1
C -0.0000298715 -0.0000193461 1.8325268460
C -0.0000356661 -0.0001211803 0.3214203011
Cl 0.5953154081 -1.5846319384 -0.3018720588
Cl -1.6700384571 0.2769353041 -0.3019838615
Cl 1.0748653200 1.3078088698 -0.3019661521
H -0.3617962086 0.9647542379 2.1940477076
H -0.6545027713 -0.7958568420 2.1940415495
H 1.0164888414 -0.1690881346 2.1937540278
