 xtb: 6.7.1 (edcfbbe)
          04152520263D

 10  9  0     0  0            999 V2000
    1.9008   -0.0540    0.1643 C   0  0  0  0  0  0  0  0  0  0  0  0
    0.6935    0.3170   -0.2142 C   0  0  0  0  0  0  0  0  0  0  0  0
   -0.5347   -0.5298   -0.0812 C   0  0  0  0  0  0  0  0  0  0  0  0
   -1.6131    0.2931    0.3163 O   0  0  0  0  0  0  0  0  0  0  0  0
    2.7575    0.5836    0.0319 H   0  0  0  0  0  0  0  0  0  0  0  0
    2.0856   -1.0161    0.6140 H   0  0  0  0  0  0  0  0  0  0  0  0
    0.5124    1.2868   -0.6545 H   0  0  0  0  0  0  0  0  0  0  0  0
   -0.3658   -1.3353    0.6475 H   0  0  0  0  0  0  0  0  0  0  0  0
   -0.7537   -0.9922   -1.0590 H   0  0  0  0  0  0  0  0  0  0  0  0
   -2.4086   -0.2430    0.3911 H   0  0  0  0  0  0  0  0  0  0  0  0
  1  2  2  0  0  0  0
  2  3  1  0  0  0  0
  3  4  1  0  0  0  0
  1  5  1  0  0  0  0
  1  6  1  0  0  0  0
  2  7  1  0  0  0  0
  3  8  1  0  0  0  0
  3  9  1  0  0  0  0
  4 10  1  0  0  0  0
M  END
