15
 xtb: 6.7.1 (edcfbbe)
C            1.30080225283261       -0.95905700107573       -0.36625443934489
C            0.53808551530509        0.07117198502662        0.46278689470251
C            0.71793626979100        1.48878494725604       -0.07365594542569
O           -0.84496538536408       -0.27905019960465        0.63455610468450
C           -1.62047204295736       -0.31634086148106       -0.55211687891861
H            2.37688688184643       -0.77606783449792       -0.28674110413104
H            1.09469959526790       -1.96993853698120       -0.00275127645680
H            1.03623298916323       -0.90520493188720       -1.42701723168589
H            0.92019363083218        0.03949044371030        1.49040261617496
H            0.45023439730562        1.56149030365867       -1.13254559417559
H            1.76562917397805        1.79070344074361        0.02108472766153
H            0.10334903030339        2.19325515654172        0.49422023737787
H           -1.25741835507661       -1.06747149069920       -1.26848586758014
H           -1.66601571985162        0.66042720724199       -1.05497619027362
H           -2.63236115551454       -0.59332488566288       -0.24676962625039
