 xtb: 6.7.1 (edcfbbe)
          04152519403D

 23 22  0     0  0            999 V2000
   -2.4745   -1.0500    0.0327 C   0  0  0  0  0  0  0  0  0  0  0  0
   -1.7365    0.2286    0.4169 C   0  0  0  0  0  0  0  0  0  0  0  0
   -0.5787    0.5669   -0.5338 C   0  0  0  0  0  0  0  0  0  0  0  0
    0.8365    0.1773   -0.0650 C   0  0  0  0  0  0  0  0  0  0  0  0
    1.8095    0.4783   -1.2110 C   0  0  0  0  0  0  0  0  0  0  0  0
    1.2478    1.0090    1.1526 C   0  0  0  0  0  0  0  0  0  0  0  0
    0.9284   -1.3102    0.2776 C   0  0  0  0  0  0  0  0  0  0  0  0
   -3.2872   -1.2413    0.7309 H   0  0  0  0  0  0  0  0  0  0  0  0
   -2.8991   -0.9572   -0.9649 H   0  0  0  0  0  0  0  0  0  0  0  0
   -1.8085   -1.9079    0.0415 H   0  0  0  0  0  0  0  0  0  0  0  0
   -2.4553    1.0512    0.4051 H   0  0  0  0  0  0  0  0  0  0  0  0
   -1.3729    0.1397    1.4408 H   0  0  0  0  0  0  0  0  0  0  0  0
   -0.5724    1.6446   -0.7140 H   0  0  0  0  0  0  0  0  0  0  0  0
   -0.7684    0.0840   -1.4952 H   0  0  0  0  0  0  0  0  0  0  0  0
    2.8309    0.2496   -0.9146 H   0  0  0  0  0  0  0  0  0  0  0  0
    1.5674   -0.1186   -2.0878 H   0  0  0  0  0  0  0  0  0  0  0  0
    1.7622    1.5289   -1.4893 H   0  0  0  0  0  0  0  0  0  0  0  0
    2.2662    0.7653    1.4481 H   0  0  0  0  0  0  0  0  0  0  0  0
    0.5972    0.8173    2.0020 H   0  0  0  0  0  0  0  0  0  0  0  0
    1.2036    2.0713    0.9221 H   0  0  0  0  0  0  0  0  0  0  0  0
    0.2994   -1.5561    1.1288 H   0  0  0  0  0  0  0  0  0  0  0  0
    0.6227   -1.9176   -0.5714 H   0  0  0  0  0  0  0  0  0  0  0  0
    1.9540   -1.5723    0.5307 H   0  0  0  0  0  0  0  0  0  0  0  0
  1  2  1  0  0  0  0
  2  3  1  0  0  0  0
  3  4  1  0  0  0  0
  4  5  1  0  0  0  0
  4  6  1  0  0  0  0
  4  7  1  0  0  0  0
  1  8  1  0  0  0  0
  1  9  1  0  0  0  0
  1 10  1  0  0  0  0
  2 11  1  0  0  0  0
  2 12  1  0  0  0  0
  3 13  1  0  0  0  0
  3 14  1  0  0  0  0
  5 15  1  0  0  0  0
  5 16  1  0  0  0  0
  5 17  1  0  0  0  0
  6 18  1  0  0  0  0
  6 19  1  0  0  0  0
  6 20  1  0  0  0  0
  7 21  1  0  0  0  0
  7 22  1  0  0  0  0
  7 23  1  0  0  0  0
M  END
