9
 xtb: 6.7.1 (edcfbbe)
C           -1.84134141876658        0.64096977935435       -0.13684396242757
C           -1.35012186952367       -0.52698831708336        0.25620995810820
C            0.08173571024649       -0.93918506083143        0.33132089563134
Cl           1.26039751833255        0.33939098164284       -0.18326171280264
H           -2.91176326441984        0.81311177773578       -0.14477849746001
H           -1.19557430577631        1.45070996981983       -0.45849852730234
H           -2.02894113637110       -1.32000751834752        0.57347779924833
H            0.35031559883008       -1.21385336652525        1.35669340086628
H            0.26667666816155       -1.80746874554905       -0.30966784750851
