10
CONF1
C -1.2598264065 -0.2617249465 0.0000783345
C 0.0138065428 0.5734143778 -0.0000577382
N 1.2650002126 -0.2102608781 0.0000048173
H -2.1507222047 0.3769843238 0.0000483858
H -1.3038376681 -0.9037179646 -0.8870612091
H -1.3037683783 -0.9035339764 0.8873536351
H 0.0240131491 1.2298410528 0.8775228151
H 0.0239624456 1.2296235877 -0.8777997722
H 1.2367187711 -0.8337458955 0.8034838873
H 1.2366425910 -0.8340007027 -0.8032733293
