10
CONF2
C -1.2525357753 0.3019625376 -0.0215825133
C -0.0060593387 -0.5711873220 -0.0231035320
N 1.2020231003 0.2710871637 -0.0199728126
H -1.2404106202 0.9858082980 -0.8750581968
H -2.1585358784 -0.3093662079 -0.0727079756
H -1.3076838865 0.9033659847 0.8930070015
H 0.0125588480 -1.1774688207 -0.9372370874
H -0.0543031212 -1.2764167569 0.8254461514
H 1.2290968326 0.8144110150 0.8374685121
H 2.0308211644 -0.3135121965 -0.0041070322
