 xtb: 6.7.1 (edcfbbe)
          04152519383D

 17 17  0     0  0            999 V2000
   -3.1784   -0.3054    0.0000 C   0  0  0  0  0  0  0  0  0  0  0  0
   -2.0856    0.5799   -0.0000 O   0  0  0  0  0  0  0  0  0  0  0  0
   -0.8268    0.0608    0.0000 C   0  0  0  0  0  0  0  0  0  0  0  0
   -0.5257   -1.2978    0.0000 C   0  0  0  0  0  0  0  0  0  0  0  0
    0.7985   -1.7012    0.0001 C   0  0  0  0  0  0  0  0  0  0  0  0
    1.8273   -0.7804    0.0000 C   0  0  0  0  0  0  0  0  0  0  0  0
    1.5272    0.5787   -0.0000 C   0  0  0  0  0  0  0  0  0  0  0  0
    0.2059    0.9946   -0.0000 C   0  0  0  0  0  0  0  0  0  0  0  0
    2.4990    1.5312   -0.0001 O   0  0  0  0  0  0  0  0  0  0  0  0
   -4.0671    0.3239   -0.0000 H   0  0  0  0  0  0  0  0  0  0  0  0
   -3.1846   -0.9382    0.8936 H   0  0  0  0  0  0  0  0  0  0  0  0
   -3.1846   -0.9383   -0.8935 H   0  0  0  0  0  0  0  0  0  0  0  0
   -1.3035   -2.0439    0.0001 H   0  0  0  0  0  0  0  0  0  0  0  0
    1.0289   -2.7564    0.0001 H   0  0  0  0  0  0  0  0  0  0  0  0
    2.8578   -1.1085    0.0000 H   0  0  0  0  0  0  0  0  0  0  0  0
   -0.0267    2.0462   -0.0001 H   0  0  0  0  0  0  0  0  0  0  0  0
    3.3665    1.1088   -0.0000 H   0  0  0  0  0  0  0  0  0  0  0  0
  1  2  1  0  0  0  0
  2  3  1  0  0  0  0
  3  4  4  0  0  0  0
  4  5  4  0  0  0  0
  5  6  4  0  0  0  0
  6  7  4  0  0  0  0
  3  8  4  0  0  0  0
  7  8  4  0  0  0  0
  7  9  1  0  0  0  0
  1 10  1  0  0  0  0
  1 11  1  0  0  0  0
  1 12  1  0  0  0  0
  4 13  1  0  0  0  0
  5 14  1  0  0  0  0
  6 15  1  0  0  0  0
  8 16  1  0  0  0  0
  9 17  1  0  0  0  0
M  END
