 xtb: 6.7.1 (edcfbbe)
          04152519533D

 17 17  0     0  0            999 V2000
    2.7976   -0.4213   -0.5508 C   0  0  0  0  0  0  0  0  0  0  0  0
    1.9831    0.2963    0.5276 C   0  0  0  0  0  0  0  0  0  0  0  0
    0.5152    0.1212    0.2760 C   0  0  0  0  0  0  0  0  0  0  0  0
   -0.1901   -0.9574    0.7968 C   0  0  0  0  0  0  0  0  0  0  0  0
   -1.5353   -1.0973    0.4997 C   0  0  0  0  0  0  0  0  0  0  0  0
   -2.1299   -0.1475   -0.3167 C   0  0  0  0  0  0  0  0  0  0  0  0
   -1.4735    0.8832   -0.8205 N   0  0  0  0  0  0  0  0  0  0  0  0
   -0.1915    1.0084   -0.5305 C   0  0  0  0  0  0  0  0  0  0  0  0
    2.5602   -0.0197   -1.5334 H   0  0  0  0  0  0  0  0  0  0  0  0
    2.5712   -1.4854   -0.5523 H   0  0  0  0  0  0  0  0  0  0  0  0
    3.8622   -0.2931   -0.3704 H   0  0  0  0  0  0  0  0  0  0  0  0
    2.2336    1.3590    0.5211 H   0  0  0  0  0  0  0  0  0  0  0  0
    2.2412   -0.1121    1.5071 H   0  0  0  0  0  0  0  0  0  0  0  0
    0.3106   -1.6765    1.4309 H   0  0  0  0  0  0  0  0  0  0  0  0
   -2.1085   -1.9232    0.8926 H   0  0  0  0  0  0  0  0  0  0  0  0
   -3.1775   -0.2094   -0.5806 H   0  0  0  0  0  0  0  0  0  0  0  0
    0.3014    1.8700   -0.9642 H   0  0  0  0  0  0  0  0  0  0  0  0
  1  2  1  0  0  0  0
  2  3  1  0  0  0  0
  3  4  4  0  0  0  0
  4  5  4  0  0  0  0
  5  6  4  0  0  0  0
  6  7  4  0  0  0  0
  3  8  4  0  0  0  0
  7  8  4  0  0  0  0
  1  9  1  0  0  0  0
  1 10  1  0  0  0  0
  1 11  1  0  0  0  0
  2 12  1  0  0  0  0
  2 13  1  0  0  0  0
  4 14  1  0  0  0  0
  5 15  1  0  0  0  0
  6 16  1  0  0  0  0
  8 17  1  0  0  0  0
M  END
