15
CONF1
C 2.0749511878 -1.0207542342 -0.0000835780
C 2.3288494414 0.3500055873 0.0000978666
C 1.2958250090 1.2596165122 0.0000997395
C -0.0321882219 0.8214121129 -0.0001029491
C -0.2950366191 -0.5676881142 -0.0000572078
C 0.7765537068 -1.4703284347 -0.0000581583
C -1.6604521805 -1.0457223049 0.0001539739
O -2.6520707943 -0.3361545895 -0.0000179549
O -1.0101582136 1.7258781073 -0.0000477627
H 2.8954249866 -1.7212257772 -0.0001721079
H 3.3490486457 0.7035691477 0.0000317151
H 1.4808284614 2.3221340093 0.0003594633
H 0.5606792268 -2.5291344819 -0.0000541094
H -1.7650984711 -2.1453114829 0.0005407841
H -1.8755158662 1.2518736412 -0.0002546544
