 xtb: 6.7.1 (edcfbbe)
          04152520073D

 22 23  0     0  0            999 V2000
   -4.3864    0.0004   -0.0007 C   0  0  0  0  0  0  0  0  0  0  0  0
   -3.6931    0.1084   -1.1944 C   0  0  0  0  0  0  0  0  0  0  0  0
   -2.3101    0.1117   -1.1969 C   0  0  0  0  0  0  0  0  0  0  0  0
   -1.6104   -0.0004   -0.0009 C   0  0  0  0  0  0  0  0  0  0  0  0
   -2.3100   -0.1121    1.1952 C   0  0  0  0  0  0  0  0  0  0  0  0
   -3.6930   -0.1081    1.1930 C   0  0  0  0  0  0  0  0  0  0  0  0
   -0.1329   -0.0004   -0.0006 C   0  0  0  0  0  0  0  0  0  0  0  0
    0.5938   -1.1207    0.4034 C   0  0  0  0  0  0  0  0  0  0  0  0
    1.9790   -1.1357    0.4076 C   0  0  0  0  0  0  0  0  0  0  0  0
    2.6613   -0.0002    0.0012 C   0  0  0  0  0  0  0  0  0  0  0  0
    1.9793    1.1351   -0.4063 C   0  0  0  0  0  0  0  0  0  0  0  0
    0.5941    1.1198   -0.4039 C   0  0  0  0  0  0  0  0  0  0  0  0
   -0.2485    2.5441   -0.8875 Cl  0  0  0  0  0  0  0  0  0  0  0  0
    4.3825    0.0001    0.0026 Cl  0  0  0  0  0  0  0  0  0  0  0  0
   -0.2492   -2.5452    0.8856 Cl  0  0  0  0  0  0  0  0  0  0  0  0
   -5.4663    0.0008   -0.0006 H   0  0  0  0  0  0  0  0  0  0  0  0
   -4.2305    0.1910   -2.1275 H   0  0  0  0  0  0  0  0  0  0  0  0
   -1.7664    0.1894   -2.1270 H   0  0  0  0  0  0  0  0  0  0  0  0
   -1.7663   -0.1901    2.1252 H   0  0  0  0  0  0  0  0  0  0  0  0
   -4.2303   -0.1903    2.1261 H   0  0  0  0  0  0  0  0  0  0  0  0
    2.5132   -2.0179    0.7202 H   0  0  0  0  0  0  0  0  0  0  0  0
    2.5137    2.0174   -0.7182 H   0  0  0  0  0  0  0  0  0  0  0  0
  1  2  4  0  0  0  0
  2  3  4  0  0  0  0
  3  4  4  0  0  0  0
  4  5  4  0  0  0  0
  1  6  4  0  0  0  0
  5  6  4  0  0  0  0
  4  7  1  0  0  0  0
  7  8  4  0  0  0  0
  8  9  4  0  0  0  0
  9 10  4  0  0  0  0
 10 11  4  0  0  0  0
  7 12  4  0  0  0  0
 11 12  4  0  0  0  0
 12 13  1  0  0  0  0
 10 14  1  0  0  0  0
  8 15  1  0  0  0  0
  1 16  1  0  0  0  0
  2 17  1  0  0  0  0
  3 18  1  0  0  0  0
  5 19  1  0  0  0  0
  6 20  1  0  0  0  0
  9 21  1  0  0  0  0
 11 22  1  0  0  0  0
M  END
