 xtb: 6.7.1 (edcfbbe)
          04162509483D

 16 15  0     0  0            999 V2000
    1.4724   -0.6591   -1.0796 C   0  0  0  0  0  0  0  0  0  0  0  0
    0.6511   -0.4924    0.1952 C   0  0  0  0  0  0  0  0  0  0  0  0
    1.3334    0.4829    1.1592 C   0  0  0  0  0  0  0  0  0  0  0  0
   -0.7554   -0.0092   -0.1315 C   0  0  0  0  0  0  0  0  0  0  0  0
   -1.1041    0.2692   -1.2500 O   0  0  0  0  0  0  0  0  0  0  0  0
   -1.6883    0.1108    1.0504 C   0  0  0  0  0  0  0  0  0  0  0  0
    1.5791    0.2989   -1.5824 H   0  0  0  0  0  0  0  0  0  0  0  0
    2.4610   -1.0482   -0.8482 H   0  0  0  0  0  0  0  0  0  0  0  0
    0.9750   -1.3435   -1.7620 H   0  0  0  0  0  0  0  0  0  0  0  0
    0.5530   -1.4651    0.6920 H   0  0  0  0  0  0  0  0  0  0  0  0
    2.3533    0.1566    1.3499 H   0  0  0  0  0  0  0  0  0  0  0  0
    0.8091    0.5364    2.1095 H   0  0  0  0  0  0  0  0  0  0  0  0
    1.3697    1.4784    0.7221 H   0  0  0  0  0  0  0  0  0  0  0  0
   -2.7190    0.0482    0.7105 H   0  0  0  0  0  0  0  0  0  0  0  0
   -1.5442    1.0888    1.5071 H   0  0  0  0  0  0  0  0  0  0  0  0
   -1.4921   -0.6538    1.7962 H   0  0  0  0  0  0  0  0  0  0  0  0
  1  2  1  0  0  0  0
  2  3  1  0  0  0  0
  2  4  1  0  0  0  0
  4  5  2  0  0  0  0
  4  6  1  0  0  0  0
  1  7  1  0  0  0  0
  1  8  1  0  0  0  0
  1  9  1  0  0  0  0
  2 10  1  0  0  0  0
  3 11  1  0  0  0  0
  3 12  1  0  0  0  0
  3 13  1  0  0  0  0
  6 14  1  0  0  0  0
  6 15  1  0  0  0  0
  6 16  1  0  0  0  0
M  END
