 xtb: 6.7.1 (edcfbbe)
          04152519373D

 26 25  0     0  0            999 V2000
   -1.8808    0.9845   -0.7606 C   0  0  0  0  0  0  0  0  0  0  0  0
   -1.4544   -0.3504   -0.1546 C   0  0  0  0  0  0  0  0  0  0  0  0
   -2.5899   -0.8868    0.7206 C   0  0  0  0  0  0  0  0  0  0  0  0
   -0.1833   -0.2653    0.7031 C   0  0  0  0  0  0  0  0  0  0  0  0
    1.1698    0.0468    0.0266 C   0  0  0  0  0  0  0  0  0  0  0  0
    1.3130   -0.6717   -1.3162 C   0  0  0  0  0  0  0  0  0  0  0  0
    1.3760    1.5515   -0.1687 C   0  0  0  0  0  0  0  0  0  0  0  0
    2.2750   -0.4556    0.9665 C   0  0  0  0  0  0  0  0  0  0  0  0
   -1.9054    1.7600    0.0019 H   0  0  0  0  0  0  0  0  0  0  0  0
   -1.2080    1.2964   -1.5541 H   0  0  0  0  0  0  0  0  0  0  0  0
   -2.8774    0.8964   -1.1896 H   0  0  0  0  0  0  0  0  0  0  0  0
   -1.2913   -1.0667   -0.9654 H   0  0  0  0  0  0  0  0  0  0  0  0
   -2.3322   -1.8564    1.1413 H   0  0  0  0  0  0  0  0  0  0  0  0
   -2.7927   -0.2008    1.5407 H   0  0  0  0  0  0  0  0  0  0  0  0
   -3.5013   -1.0010    0.1376 H   0  0  0  0  0  0  0  0  0  0  0  0
   -0.3497    0.4740    1.4909 H   0  0  0  0  0  0  0  0  0  0  0  0
   -0.0788   -1.2366    1.1943 H   0  0  0  0  0  0  0  0  0  0  0  0
    2.3242   -0.5466   -1.6983 H   0  0  0  0  0  0  0  0  0  0  0  0
    0.6233   -0.2708   -2.0540 H   0  0  0  0  0  0  0  0  0  0  0  0
    1.1219   -1.7366   -1.2030 H   0  0  0  0  0  0  0  0  0  0  0  0
    1.2884    2.0742    0.7815 H   0  0  0  0  0  0  0  0  0  0  0  0
    0.6514    1.9718   -0.8575 H   0  0  0  0  0  0  0  0  0  0  0  0
    2.3700    1.7416   -0.5694 H   0  0  0  0  0  0  0  0  0  0  0  0
    3.2568   -0.1994    0.5739 H   0  0  0  0  0  0  0  0  0  0  0  0
    2.2258   -1.5368    1.0783 H   0  0  0  0  0  0  0  0  0  0  0  0
    2.1734   -0.0043    1.9513 H   0  0  0  0  0  0  0  0  0  0  0  0
  1  2  1  0  0  0  0
  2  3  1  0  0  0  0
  2  4  1  0  0  0  0
  4  5  1  0  0  0  0
  5  6  1  0  0  0  0
  5  7  1  0  0  0  0
  5  8  1  0  0  0  0
  1  9  1  0  0  0  0
  1 10  1  0  0  0  0
  1 11  1  0  0  0  0
  2 12  1  0  0  0  0
  3 13  1  0  0  0  0
  3 14  1  0  0  0  0
  3 15  1  0  0  0  0
  4 16  1  0  0  0  0
  4 17  1  0  0  0  0
  6 18  1  0  0  0  0
  6 19  1  0  0  0  0
  6 20  1  0  0  0  0
  7 21  1  0  0  0  0
  7 22  1  0  0  0  0
  7 23  1  0  0  0  0
  8 24  1  0  0  0  0
  8 25  1  0  0  0  0
  8 26  1  0  0  0  0
M  END
