22
CONF1
C 4.9503538166 0.6953058373 0.0011440138
C 4.9503563389 -0.6952880178 0.0014964240
C 3.7456824852 -1.3932506599 0.0008061706
C 2.5478266248 -0.6968160630 -0.0002601086
C 2.5478242089 0.6968256998 -0.0005241313
C 3.7456778695 1.3932646370 0.0001603215
O 1.3748928556 1.4290805653 -0.0015235571
C 0.2108813344 0.6979113453 -0.0009219506
C -0.9867069005 1.3909676977 -0.0005203658
C -2.1947750332 0.6973385146 -0.0001270088
C -2.1947724684 -0.6973444505 -0.0000969077
C -0.9867024708 -1.3909704010 -0.0003883104
C 0.2108831942 -0.6979098371 -0.0007880187
O 1.3748986654 -1.4290754887 -0.0011158351
Cl -3.6792921128 -1.6035845425 0.0003321619
Cl -3.6792962650 1.6035738452 0.0003557518
H 5.8854596829 1.2437796660 0.0016572249
H 5.8854640952 -1.2437583504 0.0023163971
H 3.7150863785 -2.4772507215 0.0010461351
H 3.7150792679 2.4772647252 -0.0001058212
H -0.9731371155 2.4740132388 -0.0005594646
H -0.9731292871 -2.4740157747 -0.0003281958
