19
CONF1
C -3.8004311549 0.7045289093 -0.0007957941
O -2.3867004423 0.8180954464 0.0003440805
C -1.7087253464 -0.3432929207 0.0002571837
O -2.2560311468 -1.4202431879 -0.0002370542
C -0.2443290052 -0.1485309791 0.0005146767
C 0.5728877568 -1.2769155713 0.0003886761
C 1.9453117556 -1.1462468270 0.0000730449
C 2.5236194228 0.1208243338 -0.0001084513
C 1.7088760110 1.2530333028 0.0001892724
C 0.3381754888 1.1185738251 0.0004645966
O 3.8655951127 0.2999972622 -0.0006465845
H -4.1379338443 0.1676271706 -0.8900225194
H -4.1876471443 1.7202551923 0.0025306358
H -4.1389356959 0.1612829777 0.8841601141
H 0.1092289943 -2.2515358367 0.0003615688
H 2.5772175032 -2.0246567283 -0.0001558878
H 2.1774674201 2.2242141486 0.0002281494
H -0.2930695809 1.9926955076 0.0008046191
H 4.3163422215 -0.5537917610 -0.0010584494
19
CONF2
C -3.8016615983 0.7378350908 0.0005046708
O -2.3843264449 0.8087318620 0.0090687255
C -1.7098634725 -0.3539628726 -0.0024907187
O -2.2476743792 -1.4356419243 -0.0101853799
C -0.2456364204 -0.1532644138 0.0015821941
C 0.5746640278 -1.2794621002 0.0062313308
C 1.9467470483 -1.1455656445 0.0058450852
C 2.5219749515 0.1228590342 -0.0000852568
C 1.7043133778 1.2529266390 -0.0035773007
C 0.3339399386 1.1151743290 -0.0027342089
O 3.8634705379 0.3053703790 -0.0027631696
H -4.1287609928 -0.2520930309 0.3247296462
H -4.1672843427 0.9287998609 -1.0104065277
H -4.1697886037 1.5053044296 0.6795318001
H 0.1134358015 -2.2551991958 0.0099074521
H 2.5806581269 -2.0225049362 0.0095888701
H 2.1704625888 2.2252736900 -0.0075986676
H -0.2989683809 1.9880493881 -0.0062268725
H 4.3162791112 -0.5473362050 -0.0008082935
19
CONF3
C -3.8053793064 0.7179261905 -0.0050802824
O -2.3881251823 0.7951297602 -0.0086206586
C -1.7077365350 -0.3652001867 0.0038348934
O -2.2405097454 -1.4489507868 0.0100342338
C -0.2446505024 -0.1569532683 0.0012777607
C 0.5852705018 -1.2789279297 -0.0046118513
C 1.9543969156 -1.1388988746 -0.0059923467
C 2.5214603091 0.1353767344 -0.0006501201
C 1.6969025958 1.2580081724 0.0055400306
C 0.3247613773 1.1136612733 0.0063502137
O 3.8715988071 0.2347281919 -0.0015030246
H -4.1751597566 1.4573558409 -0.7140064421
H -4.1757687383 0.9447999429 0.9965222369
H -4.1251938235 -0.2851206871 -0.2941818126
H 0.1287516527 -2.2567201047 -0.0080972770
H 2.6085898349 -1.9958190957 -0.0108157939
H 2.1390269641 2.2459292313 0.0098511821
H -0.3122864520 1.9836899621 0.0112359647
H 4.1390907790 1.1623524656 0.0029478505
