19
CONF1
C -3.8229838920 0.6975739552 -0.0005136875
O -2.3884207575 0.8325332192 0.0003043168
C -1.7101729033 -0.3435651813 -0.0000416993
O -2.2611145900 -1.4245719144 -0.0007543815
C -0.2456852364 -0.1432664982 0.0001598205
C 0.5710824174 -1.2776408609 -0.0000319989
C 1.9504055812 -1.1549365902 -0.0000721110
C 2.5301641956 0.1164944842 0.0000056388
C 1.7264463099 1.2580303669 0.0002531227
C 0.3487336096 1.1248239142 0.0003301510
O 3.8791286058 0.3058740818 -0.0001738616
H -4.1551609259 0.1592516839 -0.8921044335
H -4.2106978594 1.7162464049 0.0019353805
H -4.1558457821 0.1546142220 0.8879813018
H 0.1024318531 -2.2555229526 -0.0001230181
H 2.5793763389 -2.0416238004 -0.0002006066
H 2.1989004814 2.2338022627 0.0003378511
H -0.2769590489 2.0089421625 0.0004914342
H 4.3212898802 -0.5511445930 -0.0004915625
19
CONF2
C -3.8218943759 0.7112529342 0.0287162638
O -2.3878605133 0.8439968161 0.0429494185
C -1.7114666069 -0.3297356194 -0.0416754695
O -2.2642909565 -1.4067750099 -0.1261689627
C -0.2466177186 -0.1335193316 -0.0215341308
C 0.5665689154 -1.2681908178 -0.0938350476
C 1.9461423731 -1.1508099544 -0.0736343704
C 2.5299471171 0.1154497156 0.0189149148
C 1.7297869065 1.2574277285 0.0891893957
C 0.3515623847 1.1295542578 0.0689540857
O 3.8792146968 0.2989021369 0.0448781079
H -4.1582910755 0.1173372918 0.8823751352
H -4.1516720738 0.2267911991 -0.8936046324
H -4.2087412884 1.7280466763 0.0906604609
H 0.0943942794 -2.2418500843 -0.1643671304
H 2.5723505882 -2.0378095632 -0.1290641852
H 2.2056161722 2.2291771436 0.1594167382
H -0.2713454836 2.0140274317 0.1242249341
H 4.3185691717 -0.5579638489 -0.0063422036
19
CONF3
C -3.8281072652 0.6882418559 -0.0329701103
O -2.3937972328 0.8311883715 -0.0387050211
C -1.7100089585 -0.3395098069 0.0382424800
O -2.2562083575 -1.4206662192 0.1094999679
C -0.2462910988 -0.1336548752 0.0227730289
C 0.5790832185 -1.2618687398 0.1029778235
C 1.9558928856 -1.1355821525 0.0913278019
C 2.5284742284 0.1349991112 -0.0019438157
C 1.7183784342 1.2699668341 -0.0827064540
C 0.3386639608 1.1328299620 -0.0698178429
O 3.8888795297 0.2048969450 -0.0099934777
H -4.2216900713 1.7035829912 -0.0842204154
H -4.1588696276 0.1900481346 0.8822530171
H -4.1564859183 0.1022346516 -0.8957777076
H 0.1146755777 -2.2392391330 0.1743779704
H 2.6046491291 -2.0021211829 0.1529900586
H 2.1681374839 2.2570722502 -0.1554977617
H -0.2906928861 2.0121668735 -0.1325219582
H 4.1603572729 1.1277802629 -0.0761755499
