20
CONF1
C -2.7443517987 -0.2571453744 -0.0079453776
C -2.3568297508 1.0977505416 0.0170121978
C -1.0231631575 1.4388817439 0.0255479770
C -0.0136924098 0.4458898853 0.0062148924
C -0.4073090605 -0.9325673467 -0.0042124207
C -1.7895775900 -1.2456372396 -0.0157026063
C 0.5756992065 -1.9516172242 0.0007928848
C 1.9084611920 -1.6111608470 0.0129100654
C 2.3133230048 -0.2663149495 0.0106680156
C 1.3847389880 0.7650957000 0.0052838841
N 1.8054701467 2.0857626884 0.0640769711
H -3.7982833799 -0.5165537756 -0.0164030953
H -3.1133912781 1.8755501887 0.0332678481
H -0.7567915747 2.4898340819 0.0565006057
H -2.0811829325 -2.2921820304 -0.0281275867
H 0.2607669539 -2.9904305948 -0.0055088772
H 2.6683010288 -2.3868823416 0.0150360806
H 3.3719063006 -0.0218399467 0.0088583854
H 2.7720608776 2.2169261243 -0.1986565756
H 1.2033470763 2.7611001478 -0.3828492824
