11
CONF1
C -2.1251553043 -1.2662839379 -0.1449185163
C -1.5253658828 0.0000474660 0.4152406876
C -2.1246618250 1.2667027914 -0.1447159075
I 0.6785400539 -0.0003742910 -0.0083296029
H -2.0469772191 -1.2970106048 -1.2355092920
H -1.6610994812 -2.1625877483 0.2721612177
H -3.1911127007 -1.2792873742 0.1194335042
H -1.5211095947 -0.0000468025 1.5053259927
H -3.1907468214 1.2798125101 0.1191117512
H -2.0459515259 1.2978377926 -1.2352556460
H -1.6606174093 2.1627486608 0.2729275486
