11
CONF1
C -2.1136021279 -1.2676622218 -0.1430928232
C -1.5035162457 0.0000022079 0.4157224923
C -2.1136042275 1.2676516457 -0.1431234502
I 0.6752719397 -0.0000148189 -0.0068027250
H -1.6458164360 -2.1635652355 0.2697631125
H -3.1814109045 -1.2864356693 0.1131608812
H -2.0249180029 -1.2991404191 -1.2326590517
H -1.5168145564 0.0000171534 1.5067727507
H -2.0250955716 1.2990117264 -1.2327078468
H -1.6456948476 2.1635666453 0.2695663485
H -3.1813695669 1.2865227878 0.1133062678
