11
CONF4
C -2.9992163115 0.6091824419 0.3462332154
C -1.7666638307 0.1292787131 -0.4251106223
C -0.7239653922 -0.4081062127 0.5329298231
Br 0.8912804469 -1.0402326384 -0.4255719950
H -2.7414942996 1.4074336656 1.0495374968
H -3.7549037734 0.9994745835 -0.3407655304
H -3.4543906975 -0.2075195570 0.9155726943
H -1.3387461917 0.9527671727 -1.0059868992
H -2.0463064890 -0.6536584129 -1.1375204467
H -1.0828723784 -1.2727341800 1.0929535810
H -0.3669266958 0.3548946108 1.2259883132
11
CONF2
C -3.1541575132 0.5195005102 -0.2465794164
C -1.7315300465 0.5540455198 0.3184439686
C -0.7835550910 -0.1902952454 -0.5983264454
Br 1.0726557529 -0.1672364575 0.0965490918
H -3.5177119709 -0.5084819989 -0.3451222525
H -3.8422845145 1.0559094354 0.4124118954
H -3.2006731721 0.9900171371 -1.2340056421
H -1.7081911459 0.1000862189 1.3144578919
H -1.3934702180 1.5893564359 0.4304548506
H -0.7256493974 0.2624673688 -1.5891308523
H -1.0424591146 -1.2458287264 -0.6926116045
11
CONF3
C -2.3474072840 0.8656765266 0.3171486619
C -1.9518838200 -0.5399560211 -0.1222619050
C -0.5756571758 -0.9699046980 0.3391808909
Br 0.8657248437 0.1191379648 -0.4917778018
H -3.3761974004 1.0898625052 0.0224625948
H -2.2770892999 0.9707356419 1.4052200815
H -1.6928219959 1.6148633689 -0.1358516961
H -2.0183318018 -0.6340095218 -1.2114445301
H -2.6568401402 -1.2711863302 0.2992201753
H -0.3429391587 -1.9954314672 0.0546974937
H -0.4414225058 -0.8438766189 1.4144998840
11
CONF1
C -2.3654088303 0.8686996936 -0.1613799577
C -1.8906081470 -0.4746771816 0.3804955481
C -0.6655629048 -1.0279374744 -0.3158281194
Br 0.9471506893 0.0922573480 0.0033376033
H -3.2717101872 1.1965079770 0.3547809440
H -1.5996748013 1.6368792234 -0.0251158368
H -2.5911923564 0.8016671220 -1.2308790991
H -2.6826321177 -1.2266503623 0.2482587798
H -1.6993140738 -0.4089167740 1.4569751321
H -0.7801457814 -1.0506484810 -1.4005660300
H -0.3895388315 -2.0165448008 0.0500334022
