 xtb: 6.7.1 (edcfbbe)
          04162510273D

 15 14  0     0  0            999 V2000
   -2.1787    0.2446    0.4602 C   0  0  0  0  0  0  0  0  0  0  0  0
   -1.0436    0.2714   -0.5636 C   0  0  0  0  0  0  0  0  0  0  0  0
   -0.0155   -0.7694   -0.2455 C   0  0  0  0  0  0  0  0  0  0  0  0
    1.2673   -0.5885    0.0283 C   0  0  0  0  0  0  0  0  0  0  0  0
    2.0207    0.7007    0.0745 C   0  0  0  0  0  0  0  0  0  0  0  0
   -1.7950    0.4643    1.4541 H   0  0  0  0  0  0  0  0  0  0  0  0
   -2.6484   -0.7365    0.4837 H   0  0  0  0  0  0  0  0  0  0  0  0
   -2.9364    0.9838    0.2098 H   0  0  0  0  0  0  0  0  0  0  0  0
   -1.4561    0.0643   -1.5559 H   0  0  0  0  0  0  0  0  0  0  0  0
   -0.6016    1.2670   -0.5883 H   0  0  0  0  0  0  0  0  0  0  0  0
   -0.4076   -1.7794   -0.2337 H   0  0  0  0  0  0  0  0  0  0  0  0
    1.8760   -1.4588    0.2434 H   0  0  0  0  0  0  0  0  0  0  0  0
    2.5071    0.8086    1.0439 H   0  0  0  0  0  0  0  0  0  0  0  0
    1.3795    1.5610   -0.0895 H   0  0  0  0  0  0  0  0  0  0  0  0
    2.8017    0.6997   -0.6862 H   0  0  0  0  0  0  0  0  0  0  0  0
  1  2  1  0  0  0  0
  2  3  1  0  0  0  0
  3  4  2  0  0  0  0
  4  5  1  0  0  0  0
  1  6  1  0  0  0  0
  1  7  1  0  0  0  0
  1  8  1  0  0  0  0
  2  9  1  0  0  0  0
  2 10  1  0  0  0  0
  3 11  1  0  0  0  0
  4 12  1  0  0  0  0
  5 13  1  0  0  0  0
  5 14  1  0  0  0  0
  5 15  1  0  0  0  0
M  END
