 xtb: 6.7.1 (edcfbbe)
          04152519563D

 23 23  0     0  0            999 V2000
   -2.6481   -0.4410   -1.0430 C   0  0  0  0  0  0  0  0  0  0  0  0
   -1.7738    0.1111    0.0588 C   0  0  0  0  0  0  0  0  0  0  0  0
   -2.2130    0.3709    1.1504 O   0  0  0  0  0  0  0  0  0  0  0  0
   -0.3082    0.2870   -0.2995 C   0  0  0  0  0  0  0  0  0  0  0  0
    0.3405   -1.0840   -0.5405 C   0  0  0  0  0  0  0  0  0  0  0  0
    1.8170   -0.9211   -0.8914 C   0  0  0  0  0  0  0  0  0  0  0  0
    2.5565   -0.1746    0.2139 C   0  0  0  0  0  0  0  0  0  0  0  0
    1.9160    1.1894    0.4498 C   0  0  0  0  0  0  0  0  0  0  0  0
    0.4422    1.0313    0.8050 C   0  0  0  0  0  0  0  0  0  0  0  0
   -3.6755   -0.1204   -0.8901 H   0  0  0  0  0  0  0  0  0  0  0  0
   -2.3015   -0.1358   -2.0256 H   0  0  0  0  0  0  0  0  0  0  0  0
   -2.6266   -1.5286   -0.9872 H   0  0  0  0  0  0  0  0  0  0  0  0
   -0.2529    0.8647   -1.2295 H   0  0  0  0  0  0  0  0  0  0  0  0
    0.2464   -1.6847    0.3671 H   0  0  0  0  0  0  0  0  0  0  0  0
   -0.1717   -1.6076   -1.3497 H   0  0  0  0  0  0  0  0  0  0  0  0
    2.2659   -1.9050   -1.0431 H   0  0  0  0  0  0  0  0  0  0  0  0
    1.9071   -0.3643   -1.8274 H   0  0  0  0  0  0  0  0  0  0  0  0
    2.5141   -0.7586    1.1359 H   0  0  0  0  0  0  0  0  0  0  0  0
    3.6070   -0.0534   -0.0583 H   0  0  0  0  0  0  0  0  0  0  0  0
    2.4351    1.7107    1.2562 H   0  0  0  0  0  0  0  0  0  0  0  0
    2.0107    1.7957   -0.4547 H   0  0  0  0  0  0  0  0  0  0  0  0
    0.3427    0.4718    1.7370 H   0  0  0  0  0  0  0  0  0  0  0  0
   -0.0175    2.0093    0.9596 H   0  0  0  0  0  0  0  0  0  0  0  0
  1  2  1  0  0  0  0
  2  3  2  0  0  0  0
  2  4  1  0  0  0  0
  4  5  1  0  0  0  0
  5  6  1  0  0  0  0
  6  7  1  0  0  0  0
  7  8  1  0  0  0  0
  4  9  1  0  0  0  0
  8  9  1  0  0  0  0
  1 10  1  0  0  0  0
  1 11  1  0  0  0  0
  1 12  1  0  0  0  0
  4 13  1  0  0  0  0
  5 14  1  0  0  0  0
  5 15  1  0  0  0  0
  6 16  1  0  0  0  0
  6 17  1  0  0  0  0
  7 18  1  0  0  0  0
  7 19  1  0  0  0  0
  8 20  1  0  0  0  0
  8 21  1  0  0  0  0
  9 22  1  0  0  0  0
  9 23  1  0  0  0  0
M  END
