9
 xtb: 6.7.1 (edcfbbe)
C           -1.38517415795035       -0.58474336314413       -0.00002616397688
S            0.00000225914783        0.60602777849513        0.00004187169142
C            1.38516433157179       -0.58476121794776        0.00000998237564
H           -1.36069321123703       -1.21298680807539        0.89544305029879
H           -1.36066129527171       -1.21292053528918       -0.89554028988411
H           -2.31162320909121       -0.00561205216467       -0.00002074331917
H            1.36062599435712       -1.21302878135530        0.89546070771294
H            2.31162031489859       -0.00564131672213        0.00008418286357
H            1.36069121788539       -1.21291304139013       -0.89552318406959
