16
 xtb: 6.7.1 (edcfbbe)
C            1.72029460471801       -0.95183647994081       -0.00093360423383
C            0.71713750837292        0.17149535808194       -0.00015698756259
C            1.13569850656527        1.44743349391943        0.00046577239849
C           -0.71713228049080       -0.17148650985995       -0.00006229041034
C           -1.13569428543573       -1.44742446873546        0.00072682232275
C           -1.72028917426272        0.95184481247040       -0.00095412957797
H            1.60003336865975       -1.59043628738402        0.88112794661845
H            2.73860469475955       -0.55847397766537       -0.00110708413321
H            1.59931608955899       -1.58956758415038       -0.88352659338575
H            0.45070749128880        2.28698050109068        0.00151359686149
H            2.19484359127250        1.68385253193636        0.00090850317937
H           -2.19484019507648       -1.68384033446515        0.00068025483110
H           -0.45070510122418       -2.28697409278868        0.00146939430645
H           -2.73859860109933        0.55848208560937       -0.00175010619322
H           -1.60041807941255        1.59009431136407        0.88141702010848
H           -1.59892068596333        1.58992287628548       -0.88323630894774
