 xtb: 6.7.1 (edcfbbe)
          04162511253D

 24 24  0     0  0            999 V2000
   -2.5557   -0.7155   -0.3173 C   0  0  0  0  0  0  0  0  0  0  0  0
   -1.1799   -0.3075    0.2234 C   0  0  0  0  0  0  0  0  0  0  0  0
   -1.2203   -0.2748    1.3273 H   0  0  0  0  0  0  0  0  0  0  0  0
   -0.7339    1.0647   -0.3011 C   0  0  0  0  0  0  0  0  0  0  0  0
   -0.7525    1.0608   -1.3967 H   0  0  0  0  0  0  0  0  0  0  0  0
    0.6997    1.3397    0.1744 C   0  0  0  0  0  0  0  0  0  0  0  0
    0.6981    1.4339    1.2764 H   0  0  0  0  0  0  0  0  0  0  0  0
    1.6301    0.1814   -0.2070 C   0  0  0  0  0  0  0  0  0  0  0  0
    1.6834    0.1294   -1.3087 H   0  0  0  0  0  0  0  0  0  0  0  0
    1.0445   -1.1453    0.3172 C   0  0  0  0  0  0  0  0  0  0  0  0
    1.0396   -1.1269    1.4181 H   0  0  0  0  0  0  0  0  0  0  0  0
   -0.2708   -1.3081   -0.1836 O   0  0  0  0  0  0  0  0  0  0  0  0
    1.7755   -2.2479   -0.0429 O   0  0  0  0  0  0  0  0  0  0  0  0
    2.9037    0.3596    0.3417 O   0  0  0  0  0  0  0  0  0  0  0  0
    1.2109    2.5208   -0.3968 O   0  0  0  0  0  0  0  0  0  0  0  0
   -1.5929    2.1086    0.0836 O   0  0  0  0  0  0  0  0  0  0  0  0
   -3.0246   -1.8791    0.2993 O   0  0  0  0  0  0  0  0  0  0  0  0
   -2.4719   -0.8492   -1.4044 H   0  0  0  0  0  0  0  0  0  0  0  0
   -3.2829    0.0714   -0.1084 H   0  0  0  0  0  0  0  0  0  0  0  0
    1.8333   -2.2925   -1.0058 H   0  0  0  0  0  0  0  0  0  0  0  0
    3.1856    1.2587    0.1285 H   0  0  0  0  0  0  0  0  0  0  0  0
    0.4895    3.1617   -0.4419 H   0  0  0  0  0  0  0  0  0  0  0  0
   -1.7201    2.0803    1.0403 H   0  0  0  0  0  0  0  0  0  0  0  0
   -2.3426   -2.5554    0.2006 H   0  0  0  0  0  0  0  0  0  0  0  0
  1  2  1  0  0  0  0
  2  3  1  0  0  0  0
  2  4  1  0  0  0  0
  4  5  1  0  0  0  0
  4  6  1  0  0  0  0
  6  7  1  0  0  0  0
  6  8  1  0  0  0  0
  8  9  1  0  0  0  0
  8 10  1  0  0  0  0
 10 11  1  0  0  0  0
  2 12  1  0  0  0  0
 10 12  1  0  0  0  0
 10 13  1  0  0  0  0
  8 14  1  0  0  0  0
  6 15  1  0  0  0  0
  4 16  1  0  0  0  0
  1 17  1  0  0  0  0
  1 18  1  0  0  0  0
  1 19  1  0  0  0  0
 13 20  1  0  0  0  0
 14 21  1  0  0  0  0
 15 22  1  0  0  0  0
 16 23  1  0  0  0  0
 17 24  1  0  0  0  0
M  END
