11
 xtb: 6.7.1 (edcfbbe)
C           -2.36436114314904       -0.82399448796396       -0.24747409511742
O           -0.93419662518618       -0.64153476933270       -0.11865020512692
C           -0.54262827866327        0.63202429408763       -0.03401342322755
O           -1.27784699222433        1.59209611277390       -0.05925572485896
C            0.95355696029109        0.83160107816880        0.09631740425811
Cl           1.96871783674399       -0.65600296203705        0.17406291820238
H           -2.72465942647043       -0.33882681820953       -1.15773216402995
H           -2.87739673038049       -0.39742811351338        0.61766141249096
H           -2.51196424102551       -1.90193536667262       -0.29583863071104
H            1.13103527264266        1.41327659111244        1.00361041822975
H            1.28332682365805        1.42342389543583       -0.76097505615366
