8
 xtb: 6.7.1 (edcfbbe)
C           -0.85099020835978        0.58802121416553       -0.93227469651426
C            0.51763056465586       -0.03822991614663       -0.76895821424336
Cl           0.40736430611282       -1.76208010913987       -0.26818704662432
Cl           1.54883421076909        0.89903284596633        0.36814478224243
Cl          -1.81159826093777        0.63728129007673        0.58538187669961
H           -0.72778709282290        1.61634763137687       -1.28230100177336
H           -1.41741172331825        0.00943066891812       -1.66680688744843
H            1.02919514564970       -0.02646125768819       -1.73534175757972
