15
CONF1
C 0.0376720808 -1.2138162672 0.0000179446
C 1.4202576487 -1.2135822461 0.0000078848
C 2.1131235100 0.0009680365 -0.0000079952
C 1.4180579177 1.2148465704 -0.0000128711
C 0.0331673497 1.2154704039 -0.0000016450
C -0.6436439772 0.0008984130 0.0000240876
N -2.1104826851 0.0007722317 0.0000754439
O -2.6801533907 1.0878594196 -0.0000028235
O -2.6793516841 -1.0863213662 -0.0000249119
O 3.4691376458 -0.0633464421 -0.0000175306
H -0.5237750833 -2.1395555393 0.0000331456
H 1.9821782457 -2.1404294257 0.0000152533
H 1.9613911969 2.1558944502 -0.0000215789
H -0.5290774181 2.1407056318 -0.0000006027
H 3.8363543685 0.8285902011 -0.0000376695
