15
CONF1
C -2.6873089233 0.0020476705 -0.4017234818
C -2.0269723526 -1.2037922588 -0.1825412138
C -0.7089436280 -1.2050999939 0.2580832462
C -0.0381062886 -0.0018157201 0.4860533125
C -0.7065977262 1.2034435255 0.2615213171
C -2.0245797678 1.2059811086 -0.1791382393
C 1.3775881438 -0.0038490153 0.9525543870
Cl 2.5491822374 0.0006811553 -0.4724862371
H -3.7168393864 0.0035482569 -0.7444423799
H -2.5404286754 -2.1441730171 -0.3542691897
H -0.1909145921 -2.1456851661 0.4224725091
H -0.1866822413 2.1425215220 0.4285412892
H -2.5361839821 2.1478487957 -0.3482217492
H 1.6196264872 -0.8989918885 1.5271434845
H 1.6202401619 0.8872203551 1.5331939318
