24
 xtb: 6.7.1 (edcfbbe)
C           -2.57780357560825       -0.64768158380611       -0.29733224319845
C           -1.21071619603573       -0.26539330492835        0.23787814955887
H           -1.25221069801713       -0.21037400875316        1.33850084792196
C           -0.70721464358594        1.06491928277643       -0.31939015481855
H           -0.70263677656509        1.01266874063003       -1.42224287264459
C            0.71628335867996        1.30726011241686        0.16021798711598
H            0.70256311322018        1.41144832864035        1.25924283992236
C            1.60056776224620        0.12685719453574       -0.20144953013977
H            1.64916471254199        0.03596959604305       -1.30179289231363
C            0.99513331936257       -1.16222515965287        0.35982544137294
H            0.98305222813444       -1.12964937489340        1.46137082975127
O           -0.31772426364613       -1.32377056802708       -0.15838479394478
O            1.75544946595681       -2.28546820590203        0.01244457896615
O            2.88820681405441        0.38071188135998        0.34988569222297
O            1.16300383799419        2.52013222934534       -0.44347126485261
O           -1.58390236041694        2.08708229458256        0.13497501565462
O           -3.04131160160111       -1.86607632274576        0.26641954468205
H           -2.52256321742309       -0.70658334708977       -1.39715538825959
H           -3.29729826841147        0.12928232186842       -0.02814259389596
H            1.67534514717659       -2.40335795847729       -0.94452492864331
H            3.42539689208990       -0.40947453717010        0.21065862288029
H            2.06929118433214        2.67206706776187       -0.14896442251901
H           -1.16091226828041        2.92972124995644       -0.07413792095918
H           -2.35374398684206       -2.52509674520253        0.10986873065596
