17
 xtb: 6.7.1 (edcfbbe)
C           -1.83791677711955        1.47394693480022        0.00034024580708
C           -0.53683459425319        0.71844366064051       -0.00007075820566
C            0.67703576358578        1.40410286077534       -0.00002569250068
C            1.87616785536545        0.70506189677119       -0.00010119537698
C            1.81926887602117       -0.68289590441179       -0.00018581309134
N            0.67352453920307       -1.36553524861678       -0.00044519863108
C           -0.48354733865140       -0.68836496226523       -0.00048052209885
C           -1.71998234081315       -1.54520324609595       -0.00021251214947
H           -2.44405235467604        1.23366613486422        0.88050806105621
H           -1.65641094705076        2.55164661010993        0.00413789648830
H           -2.44110221436659        1.23950125602245       -0.88347910591340
H            0.67716519204077        2.49108704632558        0.00010573243322
H            2.82969129751180        1.22250683144817       -0.00006045333210
H            2.73282261038176       -1.27596433668248        0.00003810504669
H           -1.71029495007209       -2.20620865369438       -0.87249606814829
H           -1.72160981530578       -2.18984502281772        0.88447410220079
H           -2.64267971778812       -0.96451724085467       -0.01111986683783
