 xtb: 6.7.1 (edcfbbe)
          04152520113D

 22 23  0     0  0            999 V2000
    0.7409    0.0000   -0.0001 C   0  0  0  0  0  0  0  0  0  0  0  0
    1.4422   -0.8501    0.8502 C   0  0  0  0  0  0  0  0  0  0  0  0
    2.8363   -0.8555    0.8553 C   0  0  0  0  0  0  0  0  0  0  0  0
    3.5317   -0.0002   -0.0004 C   0  0  0  0  0  0  0  0  0  0  0  0
    2.8362    0.8553   -0.8559 C   0  0  0  0  0  0  0  0  0  0  0  0
    1.4422    0.8501   -0.8504 C   0  0  0  0  0  0  0  0  0  0  0  0
    0.5711    1.8928   -1.8933 Cl  0  0  0  0  0  0  0  0  0  0  0  0
    3.6903    1.9026   -1.9037 Cl  0  0  0  0  0  0  0  0  0  0  0  0
    5.2410   -0.0003   -0.0006 Cl  0  0  0  0  0  0  0  0  0  0  0  0
    3.6905   -1.9029    1.9029 Cl  0  0  0  0  0  0  0  0  0  0  0  0
    0.5712   -1.8927    1.8932 Cl  0  0  0  0  0  0  0  0  0  0  0  0
   -0.7409    0.0001    0.0000 C   0  0  0  0  0  0  0  0  0  0  0  0
   -1.4423   -0.8500   -0.8502 C   0  0  0  0  0  0  0  0  0  0  0  0
   -2.8363   -0.8554   -0.8553 C   0  0  0  0  0  0  0  0  0  0  0  0
   -3.5317   -0.0000    0.0003 C   0  0  0  0  0  0  0  0  0  0  0  0
   -2.8362    0.8554    0.8559 C   0  0  0  0  0  0  0  0  0  0  0  0
   -1.4421    0.8501    0.8504 C   0  0  0  0  0  0  0  0  0  0  0  0
   -0.5710    1.8929    1.8933 Cl  0  0  0  0  0  0  0  0  0  0  0  0
   -3.6903    1.9027    1.9036 Cl  0  0  0  0  0  0  0  0  0  0  0  0
   -5.2410   -0.0003    0.0007 Cl  0  0  0  0  0  0  0  0  0  0  0  0
   -3.6905   -1.9028   -1.9029 Cl  0  0  0  0  0  0  0  0  0  0  0  0
   -0.5713   -1.8927   -1.8932 Cl  0  0  0  0  0  0  0  0  0  0  0  0
  1  2  4  0  0  0  0
  2  3  4  0  0  0  0
  3  4  4  0  0  0  0
  4  5  4  0  0  0  0
  1  6  4  0  0  0  0
  5  6  4  0  0  0  0
  6  7  1  0  0  0  0
  5  8  1  0  0  0  0
  4  9  1  0  0  0  0
  3 10  1  0  0  0  0
  2 11  1  0  0  0  0
  1 12  1  0  0  0  0
 12 13  4  0  0  0  0
 13 14  4  0  0  0  0
 14 15  4  0  0  0  0
 15 16  4  0  0  0  0
 12 17  4  0  0  0  0
 16 17  4  0  0  0  0
 17 18  1  0  0  0  0
 16 19  1  0  0  0  0
 15 20  1  0  0  0  0
 14 21  1  0  0  0  0
 13 22  1  0  0  0  0
M  END
