 xtb: 6.7.1 (edcfbbe)
          04162510203D

 12 11  0     0  0            999 V2000
   -1.9170   -0.6825    0.0850 C   0  0  0  0  0  0  0  0  0  0  0  0
   -0.9529    0.4647   -0.1833 C   0  0  0  0  0  0  0  0  0  0  0  0
    0.4607    0.1219    0.2610 C   0  0  0  0  0  0  0  0  0  0  0  0
    0.7905   -0.9361    0.7408 O   0  0  0  0  0  0  0  0  0  0  0  0
    1.3479    1.1311    0.0672 N   0  0  0  0  0  0  0  0  0  0  0  0
   -1.5858   -1.5769   -0.4357 H   0  0  0  0  0  0  0  0  0  0  0  0
   -1.9451   -0.9058    1.1481 H   0  0  0  0  0  0  0  0  0  0  0  0
   -2.9191   -0.4267   -0.2503 H   0  0  0  0  0  0  0  0  0  0  0  0
   -1.2733    1.3636    0.3491 H   0  0  0  0  0  0  0  0  0  0  0  0
   -0.9281    0.6973   -1.2510 H   0  0  0  0  0  0  0  0  0  0  0  0
    1.0826    2.0118   -0.3342 H   0  0  0  0  0  0  0  0  0  0  0  0
    2.3090    0.9897    0.3293 H   0  0  0  0  0  0  0  0  0  0  0  0
  1  2  1  0  0  0  0
  2  3  1  0  0  0  0
  3  4  2  0  0  0  0
  3  5  4  0  0  0  0
  1  6  1  0  0  0  0
  1  7  1  0  0  0  0
  1  8  1  0  0  0  0
  2  9  1  0  0  0  0
  2 10  1  0  0  0  0
  5 11  1  0  0  0  0
  5 12  1  0  0  0  0
M  END
