10
CONF2
C 1.8318520405 0.2145228240 0.1893947235
C 0.7039799543 -0.1717005395 -0.4007661227
C -0.5676650664 -0.4629422578 0.3319113518
O -1.6462310561 0.3606485135 -0.1316306282
H 2.7314720905 0.4262208145 -0.3796287647
H 1.8932047938 0.3262131170 1.2697369359
H 0.6546549801 -0.2693489011 -1.4845116480
H -0.4164570584 -0.3519334663 1.4169329623
H -0.8929180965 -1.4920021506 0.1417423724
H -1.3596357280 1.2773778760 -0.0469098273
10
CONF1
C 1.5191589477 0.5579409562 0.0370736519
C 0.8186916119 -0.5693871014 -0.0322289022
C -0.6766508060 -0.6612213845 0.0215957191
O -1.3469813197 0.5908595639 0.0338920340
H 2.6020150348 0.5496255653 -0.0178337064
H 1.0324337537 1.5191871363 0.1694952685
H 1.3323367760 -1.5239682483 -0.1439243874
H -0.9788025147 -1.1731027069 0.9445756178
H -1.0287799015 -1.2937559797 -0.8117441333
H -1.1080961790 1.0560018488 -0.7759145848
10
CONF6
C 1.4840712481 0.5887200537 0.0017988976
C 0.8153158782 -0.5587960900 -0.0208393668
C -0.6710193938 -0.6888859097 -0.0110424118
O -1.2804199684 0.5972618473 0.0264961478
H 2.5685723302 0.6004294050 -0.0075088176
H 0.9642627731 1.5397050921 0.0297607217
H 1.3510871093 -1.5066526649 -0.0490093879
H -0.9683610363 -1.2941181567 0.8635311123
H -0.9840820741 -1.2497801448 -0.9093579828
H -2.2342980152 0.4740989921 0.0316260828
10
CONF5
C 1.8645950178 0.1841747271 0.1883181014
C 0.6964911712 -0.0521851097 -0.3988286472
C -0.5405189036 -0.4618720111 0.3300540772
O -1.6059935989 0.4110598493 -0.0693347149
H 2.7462911635 0.4479121258 -0.3866151417
H 1.9796092380 0.1201818088 1.2676467700
H 0.5921670583 0.0323479272 -1.4793565703
H -0.3699699153 -0.4168149515 1.4168335273
H -0.7840372638 -1.5049034901 0.0658917997
H -2.4305568223 0.0487054208 0.2712958403
10
CONF3
C 1.8560702739 0.2337445396 0.2117876766
C 0.7359230175 -0.1655256256 -0.3816818741
C -0.5507536239 -0.4375322533 0.3354136351
O -1.6198305824 0.4079407082 -0.1132671189
H 2.7682116158 0.4108970824 -0.3489196135
H 1.8972855614 0.3943349273 1.2861616928
H 0.7207908695 -0.3152297748 -1.4624769607
H -0.4380080004 -0.2340394024 1.4044110478
H -0.8292312362 -1.4981972939 0.2235867051
H -1.8007224231 0.1982698642 -1.0355860087
10
CONF7
C 1.9339843903 -0.0886605788 0.0110509499
C 0.6806088520 0.3473746075 -0.0493517621
C -0.5350353064 -0.5281837187 0.0508315684
O -1.6898181305 0.3151977438 -0.0128880487
H 2.7716180059 0.5945047200 -0.0724465802
H 2.1688083524 -1.1420671623 0.1452265243
H 0.4675779907 1.4059247771 -0.1837268039
H -0.5140045111 -1.0921842305 0.9970052470
H -0.5388054815 -1.2582029419 -0.7745508234
H -2.4711085220 -0.2435907740 0.0450330742
