27
 xtb: 6.7.1 (edcfbbe)
C            3.74809870349133       -0.26336916594331       -0.17837195249623
C            2.26113003311969       -0.16606118004994       -0.06406781119669
C            1.57561941115580        0.92752334053288       -0.44199280136355
C            0.11196616313913        1.02950098504682       -0.36727635712182
O           -0.44586083942619        2.10281346959918       -0.54508317364913
C           -0.65114723031308       -0.26638401123553       -0.07068152722086
H           -0.60829394997526       -0.85967459985027       -1.00211891745869
C            0.13959381848210       -1.04575477657437        0.99060360323654
C            1.55154248373462       -1.36119846841931        0.50258392143679
C           -2.13323028747941       -0.00063856714460        0.26064801679433
C           -2.91177703595257        0.34632118556503       -1.01311080060318
C           -2.80605917729503       -1.18330497920189        0.96290793080193
H            4.02827896368903       -1.16697409704537       -0.73429019545306
H            4.20250727371972       -0.35827526298160        0.81584265576568
H            4.17921359345521        0.60560816763384       -0.67953513774715
H            2.08729005923832        1.81097605071748       -0.81582574933841
H            0.19395831479196       -0.45036842275351        1.91251694163522
H           -0.37174908637814       -1.97945096902563        1.23848519360836
H            2.15581957194642       -1.78890107303552        1.31301880968805
H            1.51308075919721       -2.13845518397943       -0.27781476861259
H           -2.16802350387554        0.86970454815705        0.92915114359102
H           -3.94521061567548        0.61501190291778       -0.77133336554246
H           -2.94219347805723       -0.52133147437046       -1.68429011621581
H           -2.45655895339436        1.18496551525489       -1.54221370740058
H           -2.71387759292396       -2.09982679479796        0.36674135908447
H           -3.87424615555018       -0.98053003716792        1.08918067426603
H           -2.38985579694497       -1.37843424101049        1.95525267513252
