 xtb: 6.7.1 (edcfbbe)
          04152519433D

 19 19  0     0  0            999 V2000
   -3.1829   -0.0091    0.8416 C   0  0  0  0  0  0  0  0  0  0  0  0
   -2.4791    0.0129   -0.5167 C   0  0  0  0  0  0  0  0  0  0  0  0
   -0.9871    0.0076   -0.3395 C   0  0  0  0  0  0  0  0  0  0  0  0
   -0.2876   -1.1889   -0.2351 C   0  0  0  0  0  0  0  0  0  0  0  0
    1.0775   -1.2040   -0.0318 C   0  0  0  0  0  0  0  0  0  0  0  0
    1.7760   -0.0061    0.0745 C   0  0  0  0  0  0  0  0  0  0  0  0
    1.0879    1.1960   -0.0256 C   0  0  0  0  0  0  0  0  0  0  0  0
   -0.2801    1.1963   -0.2290 C   0  0  0  0  0  0  0  0  0  0  0  0
    3.1235   -0.0570    0.2728 O   0  0  0  0  0  0  0  0  0  0  0  0
   -2.9004   -0.8993    1.3989 H   0  0  0  0  0  0  0  0  0  0  0  0
   -4.2629   -0.0075    0.7123 H   0  0  0  0  0  0  0  0  0  0  0  0
   -2.9015    0.8633    1.4272 H   0  0  0  0  0  0  0  0  0  0  0  0
   -2.7838    0.9067   -1.0650 H   0  0  0  0  0  0  0  0  0  0  0  0
   -2.7854   -0.8619   -1.0940 H   0  0  0  0  0  0  0  0  0  0  0  0
   -0.8205   -2.1252   -0.3180 H   0  0  0  0  0  0  0  0  0  0  0  0
    1.6225   -2.1313    0.0462 H   0  0  0  0  0  0  0  0  0  0  0  0
    1.6258    2.1322    0.0551 H   0  0  0  0  0  0  0  0  0  0  0  0
   -0.8032    2.1389   -0.3062 H   0  0  0  0  0  0  0  0  0  0  0  0
    3.4777    0.8387    0.3254 H   0  0  0  0  0  0  0  0  0  0  0  0
  1  2  1  0  0  0  0
  2  3  1  0  0  0  0
  3  4  4  0  0  0  0
  4  5  4  0  0  0  0
  5  6  4  0  0  0  0
  6  7  4  0  0  0  0
  3  8  4  0  0  0  0
  7  8  4  0  0  0  0
  6  9  1  0  0  0  0
  1 10  1  0  0  0  0
  1 11  1  0  0  0  0
  1 12  1  0  0  0  0
  2 13  1  0  0  0  0
  2 14  1  0  0  0  0
  4 15  1  0  0  0  0
  5 16  1  0  0  0  0
  7 17  1  0  0  0  0
  8 18  1  0  0  0  0
  9 19  1  0  0  0  0
M  END
