 xtb: 6.7.1 (edcfbbe)
          04162510203D

 12 11  0     0  0            999 V2000
   -2.0378   -0.3809   -0.4395 C   0  0  0  0  0  0  0  0  0  0  0  0
   -0.9637    0.2477    0.4372 C   0  0  0  0  0  0  0  0  0  0  0  0
    0.3593    0.3722   -0.3029 C   0  0  0  0  0  0  0  0  0  0  0  0
    0.5476    0.0010   -1.4366 O   0  0  0  0  0  0  0  0  0  0  0  0
    1.3402    0.9499    0.4369 N   0  0  0  0  0  0  0  0  0  0  0  0
   -2.2030    0.2294   -1.3232 H   0  0  0  0  0  0  0  0  0  0  0  0
   -1.7204   -1.3666   -0.7685 H   0  0  0  0  0  0  0  0  0  0  0  0
   -2.9728   -0.4731    0.1077 H   0  0  0  0  0  0  0  0  0  0  0  0
   -0.7996   -0.3601    1.3306 H   0  0  0  0  0  0  0  0  0  0  0  0
   -1.2722    1.2448    0.7610 H   0  0  0  0  0  0  0  0  0  0  0  0
    1.1923    1.2589    1.3802 H   0  0  0  0  0  0  0  0  0  0  0  0
    2.2511    1.0699    0.0268 H   0  0  0  0  0  0  0  0  0  0  0  0
  1  2  1  0  0  0  0
  2  3  1  0  0  0  0
  3  4  2  0  0  0  0
  3  5  4  0  0  0  0
  1  6  1  0  0  0  0
  1  7  1  0  0  0  0
  1  8  1  0  0  0  0
  2  9  1  0  0  0  0
  2 10  1  0  0  0  0
  5 11  1  0  0  0  0
  5 12  1  0  0  0  0
M  END
