 xtb: 6.7.1 (edcfbbe)
          04162510213D

 31 31  0     0  0            999 V2000
    3.6881   -0.3697   -0.0506 C   0  0  0  0  0  0  0  0  0  0  0  0
    2.2155   -0.2986    0.3438 C   0  0  0  0  0  0  0  0  0  0  0  0
    2.1435   -0.3386    1.4366 H   0  0  0  0  0  0  0  0  0  0  0  0
    1.4310   -1.4747   -0.2364 C   0  0  0  0  0  0  0  0  0  0  0  0
   -0.0400   -1.3888    0.1592 C   0  0  0  0  0  0  0  0  0  0  0  0
   -0.6678   -0.0890   -0.3451 C   0  0  0  0  0  0  0  0  0  0  0  0
   -0.5373   -0.0499   -1.4358 H   0  0  0  0  0  0  0  0  0  0  0  0
    0.1063    1.1054    0.2428 C   0  0  0  0  0  0  0  0  0  0  0  0
    0.0085    1.1090    1.3330 H   0  0  0  0  0  0  0  0  0  0  0  0
    1.5886    1.0096   -0.1341 C   0  0  0  0  0  0  0  0  0  0  0  0
   -0.4349    2.3444   -0.1644 O   0  0  0  0  0  0  0  0  0  0  0  0
   -2.1810    0.0261   -0.0697 C   0  0  0  0  0  0  0  0  0  0  0  0
   -2.9840   -0.8505   -1.0297 C   0  0  0  0  0  0  0  0  0  0  0  0
   -2.5654   -0.2984    1.3722 C   0  0  0  0  0  0  0  0  0  0  0  0
    4.1340   -1.2959    0.3049 H   0  0  0  0  0  0  0  0  0  0  0  0
    3.7946   -0.3321   -1.1329 H   0  0  0  0  0  0  0  0  0  0  0  0
    4.2400    0.4640    0.3773 H   0  0  0  0  0  0  0  0  0  0  0  0
    1.5207   -1.4666   -1.3256 H   0  0  0  0  0  0  0  0  0  0  0  0
    1.8545   -2.4144    0.1248 H   0  0  0  0  0  0  0  0  0  0  0  0
   -0.5788   -2.2430   -0.2539 H   0  0  0  0  0  0  0  0  0  0  0  0
   -0.1143   -1.4331    1.2466 H   0  0  0  0  0  0  0  0  0  0  0  0
    1.6807    1.0772   -1.2231 H   0  0  0  0  0  0  0  0  0  0  0  0
    2.1172    1.8621    0.2979 H   0  0  0  0  0  0  0  0  0  0  0  0
   -0.3544    2.4074   -1.1234 H   0  0  0  0  0  0  0  0  0  0  0  0
   -2.4510    1.0718   -0.2575 H   0  0  0  0  0  0  0  0  0  0  0  0
   -2.7679   -1.9039   -0.8659 H   0  0  0  0  0  0  0  0  0  0  0  0
   -2.7529   -0.6092   -2.0652 H   0  0  0  0  0  0  0  0  0  0  0  0
   -4.0496   -0.6972   -0.8745 H   0  0  0  0  0  0  0  0  0  0  0  0
   -1.9844    0.2946    2.0732 H   0  0  0  0  0  0  0  0  0  0  0  0
   -2.4139   -1.3527    1.5905 H   0  0  0  0  0  0  0  0  0  0  0  0
   -3.6172   -0.0694    1.5297 H   0  0  0  0  0  0  0  0  0  0  0  0
  1  2  1  0  0  0  0
  2  3  1  0  0  0  0
  2  4  1  0  0  0  0
  4  5  1  0  0  0  0
  5  6  1  0  0  0  0
  6  7  1  0  0  0  0
  6  8  1  0  0  0  0
  8  9  1  0  0  0  0
  2 10  1  0  0  0  0
  8 10  1  0  0  0  0
  8 11  1  0  0  0  0
  6 12  1  0  0  0  0
 12 13  1  0  0  0  0
 12 14  1  0  0  0  0
  1 15  1  0  0  0  0
  1 16  1  0  0  0  0
  1 17  1  0  0  0  0
  4 18  1  0  0  0  0
  4 19  1  0  0  0  0
  5 20  1  0  0  0  0
  5 21  1  0  0  0  0
 10 22  1  0  0  0  0
 10 23  1  0  0  0  0
 11 24  1  0  0  0  0
 12 25  1  0  0  0  0
 13 26  1  0  0  0  0
 13 27  1  0  0  0  0
 13 28  1  0  0  0  0
 14 29  1  0  0  0  0
 14 30  1  0  0  0  0
 14 31  1  0  0  0  0
M  END
