12
 xtb: 6.7.1 (edcfbbe)
C           -1.95457716666585        0.10648578299942       -0.02741631934543
C           -0.56681608370914       -0.52786944221271        0.02614855070144
C            0.53201027201470        0.51647374611861       -0.02585010171186
O            1.79236897924397       -0.16148652218481        0.02889170804346
H           -2.73721865053901       -0.65601312264791        0.00766126066118
H           -2.11340243688081        0.78573328245123        0.81711729560970
H           -2.09205102590872        0.68250269094023       -0.94890665366113
H           -0.43008691095763       -1.22083123851049       -0.81212054200999
H           -0.44867082120769       -1.11426176001595        0.94464758092092
H            0.44362408830823        1.10293717612519       -0.95524527573090
H            0.42524662144846        1.21174576433806        0.82316404400235
H            2.49119681035106        0.49938428563390       -0.00391689129568
