10
CONF3
C -0.7108694081 -0.5903359807 -0.2800818468
C 0.6994696934 -0.6463141919 0.2676304079
O 1.3783704452 0.5150044989 -0.2343075785
O -1.4100009473 0.5589419222 0.1830202872
H -1.2729081274 -1.4656970057 0.0619861534
H -0.6724605592 -0.6141201544 -1.3811573690
H 1.1954775428 -1.5700810411 -0.0698590515
H 0.6671088679 -0.6362549591 1.3666780924
H 2.1914070950 0.6359322375 0.2645363194
H -0.8436096360 1.3150138406 -0.0159293604
10
CONF1
C -0.7188048374 -0.6006606771 0.2796843365
C 0.6884598570 -0.6220010904 -0.2901524080
O 1.4003315997 0.5728037263 0.0673038584
O -1.4417311949 0.5388545173 -0.1655261892
H -0.6714934011 -0.6322448512 1.3837510036
H -1.2718759670 -1.4864871850 -0.0540012924
H 0.6471082125 -0.6214853438 -1.3838288825
H 1.2262989023 -1.5235916857 0.0399545773
H 1.5913209820 0.5325685889 1.0115804236
H -0.8356927662 1.2877746683 -0.0882900795
10
CONF6
C -0.7037235022 -0.6154733863 0.2947284718
C 0.7073710948 -0.6233420850 -0.2683417893
O 1.4360130063 0.5417974938 0.1320065357
O -1.4389933630 0.5273446570 -0.1548683065
H -0.6678124996 -0.6491492505 1.3930859948
H -1.2485778884 -1.4989403980 -0.0582089269
H 0.6717102074 -0.7039502666 -1.3642695108
H 1.2573791848 -1.4878111006 0.1216775592
H 1.1563138065 1.2621073658 -0.4424964719
H -1.1640440383 1.2729921665 0.3887741267
