12
CONF1
C 1.5349740829 1.1938322031 0.0000490685
C 0.1504350867 1.2386936487 -0.0001631164
C -0.5509591677 0.0283056766 -0.0003435072
C 0.1780739945 -1.1713991657 -0.0001862281
N 1.5068305902 -1.2124060441 -0.0000083715
C 2.1652241379 -0.0481252276 0.0000811175
C -1.9729712277 0.0021069994 -0.0004565362
N -3.1306107622 -0.0268324932 0.0003454890
H 2.1203892184 2.1064926604 0.0000881013
H -0.3878125589 2.1799616533 -0.0002063562
H -0.3491594000 -2.1231054621 -0.0001789687
H 3.2515317264 -0.1126727606 0.0000775634
