 xtb: 6.7.1 (edcfbbe)
          04152519463D

 17 17  0     0  0            999 V2000
   -2.7590   -0.7937    0.0002 C   0  0  0  0  0  0  0  0  0  0  0  0
   -1.8007    0.2326    0.0000 O   0  0  0  0  0  0  0  0  0  0  0  0
   -0.4833   -0.1127    0.0000 C   0  0  0  0  0  0  0  0  0  0  0  0
    0.0070   -1.4090   -0.0000 C   0  0  0  0  0  0  0  0  0  0  0  0
    1.3742   -1.6499   -0.0000 C   0  0  0  0  0  0  0  0  0  0  0  0
    2.2662   -0.5990    0.0000 C   0  0  0  0  0  0  0  0  0  0  0  0
    1.7895    0.7037    0.0000 C   0  0  0  0  0  0  0  0  0  0  0  0
    0.4305    0.9594    0.0000 C   0  0  0  0  0  0  0  0  0  0  0  0
   -0.0721    2.2249    0.0000 O   0  0  0  0  0  0  0  0  0  0  0  0
   -2.6783   -1.4222    0.8937 H   0  0  0  0  0  0  0  0  0  0  0  0
   -2.6785   -1.4223   -0.8934 H   0  0  0  0  0  0  0  0  0  0  0  0
   -3.7256   -0.2923    0.0002 H   0  0  0  0  0  0  0  0  0  0  0  0
   -0.6714   -2.2472   -0.0000 H   0  0  0  0  0  0  0  0  0  0  0  0
    1.7313   -2.6684   -0.0000 H   0  0  0  0  0  0  0  0  0  0  0  0
    3.3298   -0.7805    0.0000 H   0  0  0  0  0  0  0  0  0  0  0  0
    2.4818    1.5356    0.0000 H   0  0  0  0  0  0  0  0  0  0  0  0
    0.6561    2.8579    0.0000 H   0  0  0  0  0  0  0  0  0  0  0  0
  1  2  1  0  0  0  0
  2  3  1  0  0  0  0
  3  4  4  0  0  0  0
  4  5  4  0  0  0  0
  5  6  4  0  0  0  0
  6  7  4  0  0  0  0
  3  8  4  0  0  0  0
  7  8  4  0  0  0  0
  8  9  1  0  0  0  0
  1 10  1  0  0  0  0
  1 11  1  0  0  0  0
  1 12  1  0  0  0  0
  4 13  1  0  0  0  0
  5 14  1  0  0  0  0
  6 15  1  0  0  0  0
  7 16  1  0  0  0  0
  9 17  1  0  0  0  0
M  END
