10
 xtb: 6.7.1 (edcfbbe)
C            1.48407124872234        0.58872005399719        0.00179889755507
C            0.81531587859052       -0.55879609022313       -0.02083936682041
C           -0.67101939405018       -0.68888590995860       -0.01104241178913
O           -1.28041996900429        0.59726184754986        0.02649614781262
H            2.56857233138416        0.60042940526017       -0.00750881762230
H            0.96426277350510        1.53970509277471        0.02976072170107
H            1.35108710987010       -1.50665266557821       -0.04900938790418
H           -0.96836103673646       -1.29411815725248        0.86353111271289
H           -0.98408207451364       -1.24978014537080       -0.90935798325215
H           -2.23429801620287        0.47409899228309        0.03162608281075
