12
 xtb: 6.7.1 (edcfbbe)
C            1.55752686694365       -0.52683066509516       -0.11101673609140
C            0.61645712992051        0.60164181648853        0.28964321654215
O           -0.66090764415915        0.53611654545141       -0.33942414439300
C           -1.46247155889712       -0.53494319088277        0.12939076253909
H            1.22369106968292       -1.49702869546769        0.26749943407071
H            1.63613451516921       -0.58582266930989       -1.20072961151985
H            2.55592892698409       -0.33883606575057        0.29731407891663
H            1.03562431220126        1.56500976621033       -0.01887269903091
H            0.49028669312434        0.62496453450609        1.38583613370069
H           -1.55368532130069       -0.51594193693028        1.22756100195994
H           -1.07081249021593       -1.51667962078356       -0.17435420613288
H           -2.45441178614223       -0.40554014306823       -0.31018214248515
