18
CONF1
C -2.7563668028 -0.7698902215 0.0058944521
O -1.7899876513 0.2728912228 0.0030616195
C -0.4665743267 -0.0951282073 0.0080326386
C -0.0033338014 -1.4043277089 0.0068722209
C 1.3698931566 -1.6620880897 0.0009301717
C 2.2692464744 -0.6061066032 -0.0061091718
C 1.8046796922 0.7069499472 -0.0033638785
C 0.4391532189 0.9875581948 0.0057698452
N -0.0502978241 2.2896176696 0.0758039867
H -2.6657106328 -1.3925439332 0.9055455863
H -2.6634553617 -1.4026366466 -0.8867420392
H -3.7302256852 -0.2780248670 0.0023476185
H -0.7001518000 -2.2336700474 0.0072286265
H 1.7211764195 -2.6879323261 0.0005127138
H 3.3373409783 -0.7953120065 -0.0125538805
H 2.5093192575 1.5342347944 0.0002604741
H 0.5610738319 2.9869838974 -0.3192959659
H -1.0035985962 2.3872849644 -0.2390868066
