24
 xtb: 6.7.1 (edcfbbe)
C           -2.13066198685312       -0.90409749711924       -0.27282005143314
C           -1.17285257769234       -0.32357258025487        0.77081981092214
H           -1.74726173187135       -0.32527811843882        1.70666493162440
C           -0.74387510417539        1.14043373136072        0.57020703869465
H           -1.60449255759386        1.70795302109832        0.18886459826266
C            0.42764692478209        1.29967868458637       -0.41531638711787
H            0.85575508220308        2.29899426526523       -0.26606493884303
C            1.53833789359747        0.28548134749717       -0.12699251185540
H            2.22781255167535        0.25090194294005       -0.98125892564104
C            1.04799720855964       -1.15371553834784        0.15365361382373
H            1.84838244333022       -1.66930565938411        0.70677221139784
O           -0.04581513320712       -1.16654833028899        1.06288259944653
O            0.85214642154014       -1.90383653139330       -1.00477652056597
O            2.19105235987175        0.81258489585284        1.04330192311823
O            0.00635559761407        1.15403974947510       -1.78798314199878
O           -0.40394531852709        1.73320845357973        1.81785821810886
O           -1.64065124834305       -1.01120747090823       -1.61066907449520
H           -3.05107823465322       -0.29864105351274       -0.25080793740893
H           -2.38797200983540       -1.92190812274679        0.03549925275961
H           -0.02270635350251       -1.67648457862354       -1.38820920029068
H            2.79286147806225        0.13855174646796        1.38062046575737
H           -0.32163888140267        2.00996984801542       -2.08443847507927
H            0.46337199222225        1.37911430741214        2.06809398875415
H           -1.28329872650781       -0.14175920763460       -1.87366958895856
