10
CONF1
C -1.9439734502 -0.0578206631 0.0007371520
C -0.6905581166 0.7929084193 -0.0009352900
N 0.5399913125 -0.0309097571 -0.0001225712
O 0.4263567698 -1.2296464358 -0.0003458720
O 1.5851514298 0.5748833987 0.0006344236
H -1.9737588994 -0.6963756309 -0.8782726064
H -1.9736199003 -0.6931820953 0.8820665975
H -2.8210610615 0.5828859528 -0.0003416727
H -0.6352394681 1.4363951018 0.8809682810
H -0.6358701876 1.4335968335 -0.8849365227
10
CONF2
C -1.7894231112 0.3796398727 0.4923379999
C -0.7551727315 0.4316074564 -0.6275597603
N 0.5106498148 -0.1191609568 -0.1071381646
O 0.6849882448 -1.3068735475 -0.2253852842
O 1.2683559257 0.6520138465 0.4278631649
H -2.7345984324 0.7809020920 0.1378681099
H -1.9457284495 -0.6472088421 0.8152192608
H -1.4561314282 0.9712049854 1.3420827447
H -0.5739831979 1.4619144082 -0.9369532941
H -1.0698073414 -0.1831214009 -1.4720415159
10
CONF3
C -1.7351622432 0.6105789278 -0.5072034623
C -0.8180907099 0.2269177886 0.6473541643
N 0.4965323439 -0.1723885984 0.1049987376
O 0.8233040641 -1.3264116664 0.2322764188
O 1.1473900821 0.6852760522 -0.4387341836
H -2.6852512011 0.9673403524 -0.1202080900
H -1.2773475931 1.4010939434 -1.0974029676
H -1.9214435832 -0.2468801567 -1.1499030392
H -1.2150057629 -0.6158815644 1.2146981542
H -0.6572593147 1.0870523633 1.3008112416
10
CONF4
C -1.7259197141 0.6539326643 0.5015904529
C -0.8324213649 0.1858733343 -0.6394084942
N 0.4940700180 -0.1819863965 -0.1020815880
O 0.8473228413 -1.3280152965 -0.2311957243
O 1.1296443389 0.6917715010 0.4338463617
H -1.9115429748 -0.1577071410 1.2013344679
H -1.2488385316 1.4745384810 1.0324122608
H -2.6780248216 0.9972630906 0.1075263675
H -0.6810382665 0.9978640860 -1.3543581667
H -1.2415877747 -0.6910258918 -1.1428132697
10
CONF6
C -1.8940428021 0.0881976171 0.3299889660
C -0.7063240179 0.6715655269 -0.4202547001
N 0.5307571375 -0.0561722402 -0.0627445062
O 0.5098890308 -1.2583780198 -0.1521527834
O 1.4787238345 0.6044873827 0.2841007722
H -1.9580861000 -0.9816677131 0.1465426292
H -1.7921643732 0.2549068242 1.3997676796
H -2.8123156673 0.5585902973 -0.0090549720
H -0.5462210523 1.7250412474 -0.1864785887
H -0.8461317469 0.5496185326 -1.4976796593
10
CONF5
C -1.7103134901 0.7292768974 -0.4829438505
C -0.8585625582 0.1116568140 0.6164193906
N 0.4900680246 -0.1981547693 0.0948235748
O 0.8856227431 -1.3306324719 0.2218712017
O 1.1036805554 0.7054129288 -0.4161409501
H -1.2021219852 1.5947306302 -0.9015802504
H -1.8921025502 0.0100178677 -1.2781642280
H -2.6660585402 1.0459929168 -0.0757910280
H -1.2863844399 -0.8173905765 0.9956018526
H -0.7290292569 0.8238345548 1.4354067527
