 xtb: 6.7.1 (edcfbbe)
          04162510273D

 15 14  0     0  0            999 V2000
   -2.1862    0.0502   -0.4354 C   0  0  0  0  0  0  0  0  0  0  0  0
   -1.0313    0.5012    0.4590 C   0  0  0  0  0  0  0  0  0  0  0  0
   -0.0066   -0.5825    0.5904 C   0  0  0  0  0  0  0  0  0  0  0  0
    1.2645   -0.5485    0.2215 C   0  0  0  0  0  0  0  0  0  0  0  0
    2.0059    0.5867   -0.4056 C   0  0  0  0  0  0  0  0  0  0  0  0
   -1.8225   -0.1745   -1.4357 H   0  0  0  0  0  0  0  0  0  0  0  0
   -2.9404    0.8307   -0.5080 H   0  0  0  0  0  0  0  0  0  0  0  0
   -2.6542   -0.8454   -0.0322 H   0  0  0  0  0  0  0  0  0  0  0  0
   -0.5919    1.4113    0.0518 H   0  0  0  0  0  0  0  0  0  0  0  0
   -1.4234    0.7352    1.4535 H   0  0  0  0  0  0  0  0  0  0  0  0
   -0.3914   -1.4948    1.0303 H   0  0  0  0  0  0  0  0  0  0  0  0
    1.8721   -1.4309    0.3841 H   0  0  0  0  0  0  0  0  0  0  0  0
    1.3672    1.4433   -0.5963 H   0  0  0  0  0  0  0  0  0  0  0  0
    2.4450    0.2632   -1.3494 H   0  0  0  0  0  0  0  0  0  0  0  0
    2.8221    0.9000    0.2457 H   0  0  0  0  0  0  0  0  0  0  0  0
  1  2  1  0  0  0  0
  2  3  1  0  0  0  0
  3  4  2  0  0  0  0
  4  5  1  0  0  0  0
  1  6  1  0  0  0  0
  1  7  1  0  0  0  0
  1  8  1  0  0  0  0
  2  9  1  0  0  0  0
  2 10  1  0  0  0  0
  3 11  1  0  0  0  0
  4 12  1  0  0  0  0
  5 13  1  0  0  0  0
  5 14  1  0  0  0  0
  5 15  1  0  0  0  0
M  END
