12
CONF1
C 2.3041512442 0.1430142601 0.0000609845
C 0.8156395750 0.2580240418 0.0000036668
C 0.0459652177 1.3901436413 0.0000016293
C -1.3523062002 1.1322415270 0.0000424995
C -1.6468906554 -0.2005147681 0.0000387268
S -0.2015732761 -1.1597452955 0.0000683996
H 2.6717167607 -0.3884394239 0.8842292527
H 2.6717139828 -0.3894996454 -0.8834653999
H 2.7461738526 1.1426132671 -0.0005391885
H 0.4762051635 2.3851588016 -0.0000141457
H -2.1098768400 1.9064081495 0.0000397450
H -2.6172945483 -0.6762070199 0.0000438956
