15
CONF1
C 1.9008285655 -1.4667977657 0.0000238867
C 2.5862860528 -0.2429734331 0.0000766185
C 1.9025269707 0.9570613933 0.0000587329
C 0.5030999103 0.9792093851 -0.0000210424
C -0.1808339129 -0.2614642624 -0.0000709946
C 0.5235602131 -1.4740618898 -0.0000590676
N -1.6155004077 -0.3125872896 0.0000197980
O -2.1852165191 -1.4008624980 0.0000344829
O -2.2524877633 0.7645385657 0.0000234455
O -0.0991572701 2.1805047800 -0.0000004505
H 2.4484050551 -2.4019188989 0.0000640346
H 3.6713055560 -0.2335017855 0.0001450810
H 2.4272385143 1.9063017619 0.0001186284
H -0.0319644895 -2.4033769953 -0.0000760781
H -1.0700930064 2.0164450747 -0.0000308192
