15
CONF1
C 1.9124432420 -1.4584172443 -0.0000845675
C 2.5900231461 -0.2316940832 0.0001140405
C 1.8995307023 0.9639447782 0.0001536654
C 0.4974422051 0.9805098390 0.0000738677
C -0.1753234518 -0.2646939225 -0.0000331739
C 0.5336266807 -1.4708372697 -0.0001351052
N -1.6226327516 -0.3251592009 0.0000088058
O -2.2522456268 0.7551348598 -0.0004353342
O -2.1751323929 -1.4120548531 -0.0001351131
O -0.1127638840 2.1676373102 0.0000173984
H 2.4641944949 -2.3909901396 -0.0001585992
H 3.6751779092 -0.2161394594 0.0002458680
H 2.4135472002 1.9185569377 0.0002779814
H -0.0274848846 -2.3968875870 -0.0002995659
H -1.0816145556 1.9767884689 -0.0001319123
