11
CONF1
C 1.4036353606 -0.0000267191 -0.0002557763
C 0.6930154784 -1.1953787192 -0.0001286730
C -0.6961763892 -1.1438992194 -0.0000859641
N -1.3983209226 0.0000273890 -0.0000911941
C -0.6961324348 1.1439269650 -0.0001688999
C 0.6930616387 1.1953529559 -0.0002785462
H 2.4890653864 -0.0000476469 -0.0003252637
H 1.2030620412 -2.1528991166 -0.0001184047
H -1.2754396093 -2.0648907356 0.0000229353
H -1.2753602334 2.0649406249 -0.0002130687
H 1.2031454274 2.1528536336 -0.0003608199
