11
CONF1
C 1.4043454672 -0.0006212865 -0.0000444655
C 0.6939141433 -1.1952469177 -0.0000787277
C -0.6972397622 -1.1406551144 -0.0001257668
N -1.3937423364 0.0006091094 -0.0000626237
C -0.6962378014 1.1412601161 -0.0000052020
C 0.6949646090 1.1946292720 -0.0000343894
H 2.4899789171 -0.0010996878 -0.0000535207
H 1.2048172927 -2.1525599725 -0.0000836333
H -1.2819489212 -2.0595677093 -0.0000414941
H -1.2801369305 2.0606869399 -0.0000759759
H 1.2067099330 2.1514930199 -0.0000317851
