 xtb: 6.7.1 (edcfbbe)
          04152520283D

 11 10  0     0  0            999 V2000
   -2.8286   -0.5892    0.0108 C   0  0  0  0  0  0  0  0  0  0  0  0
   -1.5020   -0.8817    0.4410 O   0  0  0  0  0  0  0  0  0  0  0  0
   -0.5444   -0.0742   -0.0269 C   0  0  0  0  0  0  0  0  0  0  0  0
   -0.7353    0.8489   -0.7623 O   0  0  0  0  0  0  0  0  0  0  0  0
    0.7987   -0.5229    0.5252 C   0  0  0  0  0  0  0  0  0  0  0  0
    2.1004    0.5194   -0.0711 Cl  0  0  0  0  0  0  0  0  0  0  0  0
   -3.4672   -1.3345    0.4768 H   0  0  0  0  0  0  0  0  0  0  0  0
   -2.8952   -0.6500   -1.0769 H   0  0  0  0  0  0  0  0  0  0  0  0
   -3.1151    0.4156    0.3262 H   0  0  0  0  0  0  0  0  0  0  0  0
    1.0013   -1.5474    0.2115 H   0  0  0  0  0  0  0  0  0  0  0  0
    0.7835   -0.4726    1.6144 H   0  0  0  0  0  0  0  0  0  0  0  0
  1  2  1  0  0  0  0
  2  3  1  0  0  0  0
  3  4  2  0  0  0  0
  3  5  1  0  0  0  0
  5  6  1  0  0  0  0
  1  7  1  0  0  0  0
  1  8  1  0  0  0  0
  1  9  1  0  0  0  0
  5 10  1  0  0  0  0
  5 11  1  0  0  0  0
M  END
