 xtb: 6.7.1 (edcfbbe)
          04152519073D

 14 14  0     0  0            999 V2000
   -1.1956   -1.2006    0.0091 C   0  0  0  0  0  0  0  0  0  0  0  0
    0.1846   -1.2031    0.0020 C   0  0  0  0  0  0  0  0  0  0  0  0
    0.8712    0.0000   -0.0008 C   0  0  0  0  0  0  0  0  0  0  0  0
    0.1845    1.2031    0.0021 C   0  0  0  0  0  0  0  0  0  0  0  0
   -1.1956    1.2006    0.0092 C   0  0  0  0  0  0  0  0  0  0  0  0
   -1.9086   -0.0000    0.0114 C   0  0  0  0  0  0  0  0  0  0  0  0
   -3.2844   -0.0000   -0.0537 N   0  0  0  0  0  0  0  0  0  0  0  0
    2.6045    0.0000   -0.0041 Cl  0  0  0  0  0  0  0  0  0  0  0  0
   -1.7341   -2.1370    0.0109 H   0  0  0  0  0  0  0  0  0  0  0  0
    0.7276   -2.1351    0.0014 H   0  0  0  0  0  0  0  0  0  0  0  0
    0.7275    2.1352    0.0016 H   0  0  0  0  0  0  0  0  0  0  0  0
   -1.7341    2.1370    0.0111 H   0  0  0  0  0  0  0  0  0  0  0  0
   -3.7505   -0.8488    0.2208 H   0  0  0  0  0  0  0  0  0  0  0  0
   -3.7506    0.8487    0.2209 H   0  0  0  0  0  0  0  0  0  0  0  0
  1  2  4  0  0  0  0
  2  3  4  0  0  0  0
  3  4  4  0  0  0  0
  4  5  4  0  0  0  0
  1  6  4  0  0  0  0
  5  6  4  0  0  0  0
  6  7  1  0  0  0  0
  3  8  1  0  0  0  0
  1  9  1  0  0  0  0
  2 10  1  0  0  0  0
  4 11  1  0  0  0  0
  5 12  1  0  0  0  0
  7 13  1  0  0  0  0
  7 14  1  0  0  0  0
M  END
