15
CONF2
C -2.6220988721 0.4991664675 -0.0007144401
O -1.2396118413 0.9389765764 -0.0024236534
C -0.3138409652 -0.0450458940 0.0001565602
O -0.6049518097 -1.2326937746 0.0036629643
C 1.0523430059 0.4977319969 -0.0016818956
C 2.1138180619 -0.2947139293 0.7432174640
C 2.1138109521 -0.2991878589 -0.7417536941
H -3.2150344844 1.4129235227 -0.0039027839
H -2.8309912247 -0.0873652406 0.8970567343
H -2.8312058996 -0.0938013276 -0.8941874658
H 1.1359575917 1.5772645159 -0.0049306931
H 2.8630391762 0.2940006193 1.2601225186
H 1.7723328015 -1.1890437917 1.2531236057
H 2.8630263345 0.2864406825 -1.2621630924
H 1.7723810178 -1.1965648766 -1.2463127879
