18
CONF1
C -3.1927249934 0.5692090262 0.0030374208
O -2.2999624737 -0.5351298431 -0.0094106552
C -0.9578018761 -0.2517550577 -0.0035101134
C -0.1020312387 -1.3555331919 0.0003783950
C 1.2711924545 -1.1807751363 0.0071461625
C 1.8348639325 0.1028745213 0.0083712202
C 0.9717331992 1.1987943540 0.0032078112
C -0.4123474789 1.0307155942 -0.0023439398
N 3.2265155507 0.2744305442 0.0872430897
H -3.0682891207 1.1973572139 -0.8899230484
H -3.0563992752 1.1857848719 0.9022214334
H -4.1975978040 0.1439829980 0.0066971759
H -0.5340968171 -2.3504590124 -0.0017561191
H 1.9199235081 -2.0525201182 0.0188873176
H 1.3806968814 2.2055437547 0.0113013461
H -1.0436141313 1.9108051233 -0.0071414962
H 3.7510068643 -0.4930899616 -0.3061814538
H 3.5486507668 1.1506576352 -0.2964863088
