 xtb: 6.7.1 (edcfbbe)
          04162510033D

 13 12  0     0  0            999 V2000
   -1.9451    0.0992    0.0379 C   0  0  0  0  0  0  0  0  0  0  0  0
   -0.5599   -0.5314   -0.0115 C   0  0  0  0  0  0  0  0  0  0  0  0
    0.5450    0.5223   -0.0163 C   0  0  0  0  0  0  0  0  0  0  0  0
    1.8477   -0.1232    0.0386 N   0  0  0  0  0  0  0  0  0  0  0  0
   -2.1014    0.7478   -0.8218 H   0  0  0  0  0  0  0  0  0  0  0  0
   -2.7140   -0.6695    0.0321 H   0  0  0  0  0  0  0  0  0  0  0  0
   -2.0610    0.6949    0.9406 H   0  0  0  0  0  0  0  0  0  0  0  0
   -0.4693   -1.1474   -0.9096 H   0  0  0  0  0  0  0  0  0  0  0  0
   -0.4123   -1.1805    0.8526 H   0  0  0  0  0  0  0  0  0  0  0  0
    0.4191    1.1741   -0.8992 H   0  0  0  0  0  0  0  0  0  0  0  0
    0.4535    1.1494    0.8755 H   0  0  0  0  0  0  0  0  0  0  0  0
    2.5876    0.5703    0.0461 H   0  0  0  0  0  0  0  0  0  0  0  0
    1.9814   -0.7086   -0.7799 H   0  0  0  0  0  0  0  0  0  0  0  0
  1  2  1  0  0  0  0
  2  3  1  0  0  0  0
  3  4  1  0  0  0  0
  1  5  1  0  0  0  0
  1  6  1  0  0  0  0
  1  7  1  0  0  0  0
  2  8  1  0  0  0  0
  2  9  1  0  0  0  0
  3 10  1  0  0  0  0
  3 11  1  0  0  0  0
  4 12  1  0  0  0  0
  4 13  1  0  0  0  0
M  END
