 xtb: 6.7.1 (edcfbbe)
          04152520023D

  8  7  0     0  0            999 V2000
    0.7203   -0.5621   -0.2412 C   0  0  0  0  0  0  0  0  0  0  0  0
   -0.7205   -0.5618    0.2413 C   0  0  0  0  0  0  0  0  0  0  0  0
   -1.0759    0.8984    1.1793 Cl  0  0  0  0  0  0  0  0  0  0  0  0
   -1.8025   -0.6671   -1.1640 Cl  0  0  0  0  0  0  0  0  0  0  0  0
    1.0762    0.8978   -1.1794 Cl  0  0  0  0  0  0  0  0  0  0  0  0
    1.8022   -0.6675    1.1642 Cl  0  0  0  0  0  0  0  0  0  0  0  0
    0.9150   -1.4282   -0.8789 H   0  0  0  0  0  0  0  0  0  0  0  0
   -0.9155   -1.4277    0.8791 H   0  0  0  0  0  0  0  0  0  0  0  0
  1  2  1  0  0  0  0
  2  3  1  0  0  0  0
  2  4  1  0  0  0  0
  1  5  1  0  0  0  0
  1  6  1  0  0  0  0
  1  7  1  0  0  0  0
  2  8  1  0  0  0  0
M  END
