16
CONF1
C 1.7202946040 -0.9518364795 -0.0009336042
C 0.7171375081 0.1714953580 -0.0001569876
C 1.1356985061 1.4474334933 0.0004657724
C -0.7171322802 -0.1714865098 -0.0000622904
C -1.1356942849 -1.4474244681 0.0007268223
C -1.7202891735 0.9518448120 -0.0009541296
H 1.6000333680 -1.5904362867 0.8811279462
H 2.7386046935 -0.5584739774 -0.0011070841
H 1.5993160889 -1.5895675834 -0.8835265930
H 0.4507074911 2.2869805001 0.0015135969
H 2.1948435903 1.6838525312 0.0009085032
H -2.1948401941 -1.6838403337 0.0006802548
H -0.4507051010 -2.2869740918 0.0014693943
H -2.7385985999 0.5584820854 -0.0017501062
H -1.6004180787 1.5900943107 0.8814170197
H -1.5989206853 1.5899228756 -0.8832363086
16
CONF2
C 1.4933404830 -0.1815907748 1.1497759438
C 0.7257642353 0.1520022169 -0.1017700319
C 1.3182020320 0.7170242258 -1.1597441320
C -0.7257755411 -0.1520099863 -0.1017570498
C -1.3182259989 -0.7170709199 -1.1597026607
C -1.4933346223 0.1816240449 1.1497883263
H 1.1515492651 0.4238310239 1.9968939604
H 2.5613357401 0.0002116124 1.0130818308
H 1.3494895022 -1.2317079576 1.4290306630
H 0.7478807419 1.0023041604 -2.0372617517
H 2.3844550519 0.9218096009 -1.1644765167
H -2.3844754505 -0.9218738054 -1.1644120450
H -0.7479027332 -1.0024189707 -2.0372013332
H -2.5613362564 -0.0001617462 1.0131051997
H -1.1515477486 -0.4237835136 1.9969213190
H -1.3494611631 1.2317482086 1.4290124694
