 xtb: 6.7.1 (edcfbbe)
          04152519203D

 17 17  0     0  0            999 V2000
   -2.8856   -0.0626    0.0134 C   0  0  0  0  0  0  0  0  0  0  0  0
   -1.3903   -0.0071    0.0051 C   0  0  0  0  0  0  0  0  0  0  0  0
   -0.7117    1.1990   -0.1513 C   0  0  0  0  0  0  0  0  0  0  0  0
    0.6691    1.2094   -0.1474 C   0  0  0  0  0  0  0  0  0  0  0  0
    1.3531    0.0053    0.0143 C   0  0  0  0  0  0  0  0  0  0  0  0
    0.7113   -1.1437    0.1632 N   0  0  0  0  0  0  0  0  0  0  0  0
   -0.6101   -1.1455    0.1582 C   0  0  0  0  0  0  0  0  0  0  0  0
    2.8493   -0.0454    0.0260 C   0  0  0  0  0  0  0  0  0  0  0  0
   -3.2899    0.4223   -0.8742 H   0  0  0  0  0  0  0  0  0  0  0  0
   -3.2340   -1.0919    0.0408 H   0  0  0  0  0  0  0  0  0  0  0  0
   -3.2773    0.4598    0.8861 H   0  0  0  0  0  0  0  0  0  0  0  0
   -1.2673    2.1188   -0.2755 H   0  0  0  0  0  0  0  0  0  0  0  0
    1.2167    2.1325   -0.2678 H   0  0  0  0  0  0  0  0  0  0  0  0
   -1.0701   -2.1184    0.2839 H   0  0  0  0  0  0  0  0  0  0  0  0
    3.2429    0.5700    0.8335 H   0  0  0  0  0  0  0  0  0  0  0  0
    3.1759   -1.0715    0.1652 H   0  0  0  0  0  0  0  0  0  0  0  0
    3.2483    0.3343   -0.9134 H   0  0  0  0  0  0  0  0  0  0  0  0
  1  2  1  0  0  0  0
  2  3  4  0  0  0  0
  3  4  4  0  0  0  0
  4  5  4  0  0  0  0
  5  6  4  0  0  0  0
  2  7  4  0  0  0  0
  6  7  4  0  0  0  0
  5  8  1  0  0  0  0
  1  9  1  0  0  0  0
  1 10  1  0  0  0  0
  1 11  1  0  0  0  0
  3 12  1  0  0  0  0
  4 13  1  0  0  0  0
  7 14  1  0  0  0  0
  8 15  1  0  0  0  0
  8 16  1  0  0  0  0
  8 17  1  0  0  0  0
M  END
