22
CONF1
C 4.8253833525 0.1134201249 -0.0004748976
C 4.5372701313 1.4741504311 -0.0006874294
C 3.2142405683 1.9091851388 -0.0004185282
C 2.1909601671 0.9764558633 0.0000798926
C 2.4786364103 -0.3838549410 0.0002355324
C 3.7926451820 -0.8209634877 -0.0000269111
O 1.4773038009 -1.3367254457 0.0007044682
C 0.1917981800 -0.8669850757 0.0003228431
C -0.8551344758 -1.7837141855 0.0000420866
C -2.1777230659 -1.3579692686 -0.0001844303
C -2.4582066385 0.0004309815 -0.0001799979
C -1.4232938206 0.9420700891 0.0000329897
C -0.0994383151 0.4994583992 0.0002545454
O 0.8886112727 1.4446362196 0.0004737811
Cl -1.7365477044 2.6431248802 0.0000479980
Cl -4.1178667044 0.5142932073 -0.0004388012
Cl -0.4969690825 -3.4850400105 0.0000390557
H 5.8541375596 -0.2287416062 -0.0006619732
H 5.3390374654 2.2038722496 -0.0010670456
H 2.9583323812 2.9629126627 -0.0005643791
H 3.9862000849 -1.8879485338 0.0001393724
H -2.9818089501 -2.0819029942 -0.0003819512
