 xtb: 6.7.1 (edcfbbe)
          04152520283D

 11 10  0     0  0            999 V2000
   -2.8340   -0.5689    0.0722 C   0  0  0  0  0  0  0  0  0  0  0  0
   -1.4954   -0.8653    0.4603 O   0  0  0  0  0  0  0  0  0  0  0  0
   -0.5388   -0.1648   -0.1580 C   0  0  0  0  0  0  0  0  0  0  0  0
   -0.7399    0.6696   -0.9903 O   0  0  0  0  0  0  0  0  0  0  0  0
    0.8182   -0.6043    0.3669 C   0  0  0  0  0  0  0  0  0  0  0  0
    2.1162    0.3293   -0.3945 Cl  0  0  0  0  0  0  0  0  0  0  0  0
   -3.0628    0.4789    0.2745 H   0  0  0  0  0  0  0  0  0  0  0  0
   -3.4702   -1.2218    0.6633 H   0  0  0  0  0  0  0  0  0  0  0  0
   -2.9695   -0.7601   -0.9938 H   0  0  0  0  0  0  0  0  0  0  0  0
    0.9730   -1.6605    0.1440 H   0  0  0  0  0  0  0  0  0  0  0  0
    0.8635   -0.4501    1.4453 H   0  0  0  0  0  0  0  0  0  0  0  0
  1  2  1  0  0  0  0
  2  3  1  0  0  0  0
  3  4  2  0  0  0  0
  3  5  1  0  0  0  0
  5  6  1  0  0  0  0
  1  7  1  0  0  0  0
  1  8  1  0  0  0  0
  1  9  1  0  0  0  0
  5 10  1  0  0  0  0
  5 11  1  0  0  0  0
M  END
