16
CONF1
C -1.8629891676 -1.4130833780 -0.0000804309
C -0.5391927832 -0.7089976575 0.0001211576
C 0.6705183471 -1.4042854133 0.0002481629
C 1.8980014049 -0.7427007541 0.0000636600
C 1.9267469881 0.6487946234 -0.0000969648
C 0.7358432733 1.3706446298 -0.0002029289
C -0.4812051802 0.6925322740 -0.0002040156
O -1.6854575060 1.3644093106 -0.0006641730
H -2.4559488530 -1.1480526454 -0.8825598965
H -1.7209205786 -2.4962099267 0.0055586066
H -2.4610005350 -1.1393035779 0.8762353919
H 0.6429679191 -2.4907061286 0.0005192954
H 2.8221548063 -1.3112668951 0.0001206324
H 2.8734674043 1.1799840664 -0.0001515930
H 0.7434512284 2.4574948713 -0.0003276029
H -1.5115483179 2.3158700327 -0.0005310168
