16
CONF1
C -1.8649328645 -1.4069175968 -0.0000040687
C -0.5360600744 -0.7103941927 0.0000070959
C 0.6721702515 -1.4037057396 0.0000092311
C 1.8992449492 -0.7434941103 0.0000000288
C 1.9280206012 0.6459802819 -0.0000039949
C 0.7368880860 1.3656744067 -0.0000035476
C -0.4810008878 0.6903675863 -0.0000023507
O -1.6834480487 1.3501897547 -0.0000144455
H -1.7328845373 -2.4912251714 0.0003067967
H -2.4571053390 -1.1271237862 0.8777789428
H -2.4568334445 -1.1276080704 -0.8781290108
H 0.6458617954 -2.4900744181 0.0000189033
H 2.8231173055 -1.3115692044 0.0000008602
H 2.8744544612 1.1769314459 -0.0000066141
H 0.7531466837 2.4533523115 -0.0000055018
H -1.5188235059 2.2996110761 -0.0000038551
