18
CONF1
C -0.7308460059 -1.2613180453 0.2333035279
C -1.4581911542 0.0021361369 -0.2333611403
C -0.7271060430 1.2634085268 0.2333489914
C 0.7308068268 1.2612704654 -0.2333225626
C 1.4581744976 -0.0021414589 0.2334031688
C 0.7271180375 -1.2634650340 -0.2332234159
H -1.2484697611 -2.1554505491 -0.1342429863
H -0.7568964859 -1.3056245979 1.3313971685
H -1.5096424934 0.0022373778 -1.3314132465
H -2.4911529920 0.0036518267 0.1345528581
H -1.2421333220 2.1590980546 -0.1340557859
H -0.7529269660 1.3076900599 1.3314529802
H 0.7567285418 1.3054408419 -1.3314279014
H 1.2484690533 2.1554516168 0.1340516984
H 2.4911270595 -0.0036758569 -0.1345355875
H 1.5096606621 -0.0021681007 1.3314522094
H 0.7530484862 -1.3078700590 -1.3313158723
H 1.2421161342 -2.1591075099 0.1343302077
