31
 xtb: 6.7.1 (edcfbbe)
C            3.75600701843314       -0.28796087447071       -0.12761677968322
C            2.31171160558823       -0.17101916565853        0.35311662236374
H            2.32027951220298        0.06703186869045        1.42807923568268
C            1.53913679236441       -1.47520195088365        0.16401919650478
C            0.08204575853909       -1.34838448779263        0.60612508122802
C           -0.68046114015495       -0.22541507010652       -0.12351084939724
H           -0.68005148568087       -0.46715285815618       -1.20111399743919
C            0.11046297539839        1.08433652148964        0.06749267530740
H            0.08282187811513        1.33754167450674        1.13733761425169
C            1.56796242047944        0.95039467040221       -0.37190240030865
O           -0.48283926521498        2.22150797077287       -0.57602098508673
C           -2.15834683919834       -0.10615296701069        0.34191777352216
C           -3.04186305027057        0.61419682771261       -0.68500194835995
C           -2.80284908363450       -1.46283531871658        0.65503039614282
H            4.28951805815315       -1.07986839190205        0.40829359535626
H            3.78704401204471       -0.52752862581901       -1.19698771362143
H            4.30229177725271        0.64925710585977        0.02105116366497
H            1.57414328244959       -1.75480298191995       -0.89972476939360
H            2.02653416781383       -2.28728883254026        0.71801621063048
H           -0.42264829187695       -2.30424930164654        0.44174252686921
H            0.04353160753078       -1.15705633249714        1.68937384963979
H            1.59250494962275        0.74780222513547       -1.45539659244730
H            2.06609534870814        1.91464031439611       -0.21532701116798
H           -0.41847645584552        2.07852307899425       -1.52806332994192
H           -2.15921489736529        0.48578981611980        1.26983662931058
H           -4.07798447817973        0.65167101986910       -0.33282098637006
H           -3.03898023488085        0.06659833094301       -1.63546154540448
H           -2.70672782378108        1.63389048834875       -0.86856630941572
H           -2.32770900839516       -1.97867289196561        1.49280131470104
H           -2.76715925305204       -2.12489782617287       -0.21886148957828
H           -3.85695292402915       -1.31950909349423        0.91295669763260
