 xtb: 6.7.1 (edcfbbe)
          04152520283D

 17 16  0     0  0            999 V2000
    2.2042    1.0188   -0.3940 C   0  0  0  0  0  0  0  0  0  0  0  0
    1.1584   -0.0758   -0.2412 C   0  0  0  0  0  0  0  0  0  0  0  0
    1.5787   -1.1395    0.7673 C   0  0  0  0  0  0  0  0  0  0  0  0
   -0.0546    0.5584    0.2008 O   0  0  0  0  0  0  0  0  0  0  0  0
   -1.2105   -0.0356   -0.0981 C   0  0  0  0  0  0  0  0  0  0  0  0
   -1.3054   -1.0569   -0.7268 O   0  0  0  0  0  0  0  0  0  0  0  0
   -2.3731    0.7422    0.4645 C   0  0  0  0  0  0  0  0  0  0  0  0
    3.1328    0.5918   -0.7611 H   0  0  0  0  0  0  0  0  0  0  0  0
    1.8601    1.7739   -1.0959 H   0  0  0  0  0  0  0  0  0  0  0  0
    2.3852    1.4939    0.5667 H   0  0  0  0  0  0  0  0  0  0  0  0
    0.9526   -0.5521   -1.2087 H   0  0  0  0  0  0  0  0  0  0  0  0
    0.8088   -1.9035    0.8437 H   0  0  0  0  0  0  0  0  0  0  0  0
    1.7284   -0.6876    1.7454 H   0  0  0  0  0  0  0  0  0  0  0  0
    2.5046   -1.6072    0.4454 H   0  0  0  0  0  0  0  0  0  0  0  0
   -2.6199    0.3342    1.4430 H   0  0  0  0  0  0  0  0  0  0  0  0
   -3.2363    0.6277   -0.1844 H   0  0  0  0  0  0  0  0  0  0  0  0
   -2.1071    1.7884    0.5760 H   0  0  0  0  0  0  0  0  0  0  0  0
  1  2  1  0  0  0  0
  2  3  1  0  0  0  0
  2  4  1  0  0  0  0
  4  5  1  0  0  0  0
  5  6  2  0  0  0  0
  5  7  1  0  0  0  0
  1  8  1  0  0  0  0
  1  9  1  0  0  0  0
  1 10  1  0  0  0  0
  2 11  1  0  0  0  0
  3 12  1  0  0  0  0
  3 13  1  0  0  0  0
  3 14  1  0  0  0  0
  7 15  1  0  0  0  0
  7 16  1  0  0  0  0
  7 17  1  0  0  0  0
M  END
