18
 xtb: 6.7.1 (edcfbbe)
C           -3.08436312569830       -0.01286334369254       -0.72568460215707
O           -2.32665886753959       -0.17126706957087        0.47520102575928
C           -0.96004045944816       -0.08230718992239        0.27087626660692
C           -0.21529042407333       -1.23039886586713        0.01942658015000
C            1.16196493109266       -1.14960628756431       -0.13939648433319
C            1.81934306587427        0.08388109767290       -0.05381547283722
C            1.05885958804606        1.23248594913377        0.19848478974396
C           -0.31816317377004        1.14924424094224        0.35731234895260
N            3.21392349458326        0.15695164533155       -0.14280390719469
H           -4.13692181376310       -0.10044625180341       -0.44730835819766
H           -2.83175478872450       -0.79281623512398       -1.45748269118231
H           -2.90568344841577        0.97199537130954       -1.17940273028354
H           -0.72183088382524       -2.18854765722622       -0.03714003465681
H            1.73780805587449       -2.05321745080421       -0.31892908583988
H            1.55418723130681        2.19563713049856        0.28444185738289
H           -0.90406198222272        2.03911512665586        0.56396253421371
H            3.63434081745486       -0.58999879138684       -0.67409522594929
H            3.56291616935085        1.05441121272565       -0.44227892927527
