14
CONF1
C -0.7393582482 -1.8174632291 -0.0000401745
C 0.5969319548 -1.4352461541 0.0000215155
C 0.9087779722 -0.0710259574 0.0000683466
C -0.1040787141 0.8965888323 0.0000011364
C -1.4347688070 0.4890784666 -0.0000693704
C -1.7543573716 -0.8704145530 -0.0000725104
O -2.4727121615 1.3709631297 -0.0000738723
C 2.2706975020 0.3482996327 0.0006542458
N 3.3761015472 0.6933197412 -0.0006029354
H -0.9950818936 -2.8716959595 -0.0000190944
H 1.3924892738 -2.1702276088 0.0000990362
H 0.1584903816 1.9503021946 0.0000700227
H -2.7986633998 -1.1627112548 -0.0000884110
H -2.1323839313 2.2730622987 -0.0002331981
