 xtb: 6.7.1 (edcfbbe)
          04152519503D

 11 10  0     0  0            999 V2000
    0.3980   -1.7053    0.1557 C   0  0  0  0  0  0  0  0  0  0  0  0
    0.4528   -0.2719   -0.3358 C   0  0  0  0  0  0  0  0  0  0  0  0
    0.3121   -0.2247   -1.4187 H   0  0  0  0  0  0  0  0  0  0  0  0
   -0.5429    0.6370    0.3642 C   0  0  0  0  0  0  0  0  0  0  0  0
   -2.2061    0.1645   -0.0687 Cl  0  0  0  0  0  0  0  0  0  0  0  0
    2.0855    0.4075   -0.0176 Cl  0  0  0  0  0  0  0  0  0  0  0  0
   -0.5911   -2.1147   -0.0372 H   0  0  0  0  0  0  0  0  0  0  0  0
    1.1363   -2.3119   -0.3618 H   0  0  0  0  0  0  0  0  0  0  0  0
    0.5957   -1.7490    1.2243 H   0  0  0  0  0  0  0  0  0  0  0  0
   -0.4526    0.5569    1.4477 H   0  0  0  0  0  0  0  0  0  0  0  0
   -0.4149    1.6747    0.0562 H   0  0  0  0  0  0  0  0  0  0  0  0
  1  2  1  0  0  0  0
  2  3  1  0  0  0  0
  2  4  1  0  0  0  0
  4  5  1  0  0  0  0
  2  6  1  0  0  0  0
  1  7  1  0  0  0  0
  1  8  1  0  0  0  0
  1  9  1  0  0  0  0
  4 10  1  0  0  0  0
  4 11  1  0  0  0  0
M  END
