 xtb: 6.7.1 (edcfbbe)
          04152520063D

 29 29  0     0  0            999 V2000
   -3.6980    0.1510   -0.2891 C   0  0  0  0  0  0  0  0  0  0  0  0
   -2.2606    0.1113    0.2204 C   0  0  0  0  0  0  0  0  0  0  0  0
   -2.2759   -0.0590    1.3028 H   0  0  0  0  0  0  0  0  0  0  0  0
   -1.5334    1.4246   -0.0589 C   0  0  0  0  0  0  0  0  0  0  0  0
   -0.0865    1.3788    0.4235 C   0  0  0  0  0  0  0  0  0  0  0  0
    0.6899    0.2345   -0.2517 C   0  0  0  0  0  0  0  0  0  0  0  0
    0.6406    0.3855   -1.3360 H   0  0  0  0  0  0  0  0  0  0  0  0
   -0.0693   -1.0354    0.0895 C   0  0  0  0  0  0  0  0  0  0  0  0
    0.3727   -1.9237    0.7738 O   0  0  0  0  0  0  0  0  0  0  0  0
   -1.4853   -1.0411   -0.4347 C   0  0  0  0  0  0  0  0  0  0  0  0
    2.1650    0.1399    0.1723 C   0  0  0  0  0  0  0  0  0  0  0  0
    2.8838   -0.8853   -0.7053 C   0  0  0  0  0  0  0  0  0  0  0  0
    2.8885    1.4820    0.0829 C   0  0  0  0  0  0  0  0  0  0  0  0
   -4.2498    0.9542    0.1939 H   0  0  0  0  0  0  0  0  0  0  0  0
   -3.7169    0.3193   -1.3640 H   0  0  0  0  0  0  0  0  0  0  0  0
   -4.2049   -0.7877   -0.0793 H   0  0  0  0  0  0  0  0  0  0  0  0
   -1.5524    1.6253   -1.1334 H   0  0  0  0  0  0  0  0  0  0  0  0
   -2.0549    2.2441    0.4406 H   0  0  0  0  0  0  0  0  0  0  0  0
    0.3930    2.3308    0.1960 H   0  0  0  0  0  0  0  0  0  0  0  0
   -0.0610    1.2358    1.5065 H   0  0  0  0  0  0  0  0  0  0  0  0
   -1.4794   -0.9028   -1.5176 H   0  0  0  0  0  0  0  0  0  0  0  0
   -1.9550   -1.9977   -0.2009 H   0  0  0  0  0  0  0  0  0  0  0  0
    2.1953   -0.2122    1.2084 H   0  0  0  0  0  0  0  0  0  0  0  0
    2.8788   -0.5657   -1.7463 H   0  0  0  0  0  0  0  0  0  0  0  0
    2.4015   -1.8559   -0.6348 H   0  0  0  0  0  0  0  0  0  0  0  0
    3.9174   -0.9962   -0.3865 H   0  0  0  0  0  0  0  0  0  0  0  0
    3.9523    1.3360    0.2556 H   0  0  0  0  0  0  0  0  0  0  0  0
    2.5249    2.1852    0.8273 H   0  0  0  0  0  0  0  0  0  0  0  0
    2.7627    1.9198   -0.9058 H   0  0  0  0  0  0  0  0  0  0  0  0
  1  2  1  0  0  0  0
  2  3  1  0  0  0  0
  2  4  1  0  0  0  0
  4  5  1  0  0  0  0
  5  6  1  0  0  0  0
  6  7  1  0  0  0  0
  6  8  1  0  0  0  0
  8  9  2  0  0  0  0
  2 10  1  0  0  0  0
  8 10  1  0  0  0  0
  6 11  1  0  0  0  0
 11 12  1  0  0  0  0
 11 13  1  0  0  0  0
  1 14  1  0  0  0  0
  1 15  1  0  0  0  0
  1 16  1  0  0  0  0
  4 17  1  0  0  0  0
  4 18  1  0  0  0  0
  5 19  1  0  0  0  0
  5 20  1  0  0  0  0
 10 21  1  0  0  0  0
 10 22  1  0  0  0  0
 11 23  1  0  0  0  0
 12 24  1  0  0  0  0
 12 25  1  0  0  0  0
 12 26  1  0  0  0  0
 13 27  1  0  0  0  0
 13 28  1  0  0  0  0
 13 29  1  0  0  0  0
M  END
