 xtb: 6.7.1 (edcfbbe)
          04152519503D

 11 10  0     0  0            999 V2000
    0.9770   -2.1015    0.3800 C   0  0  0  0  0  0  0  0  0  0  0  0
    0.3442   -0.8438   -0.1918 C   0  0  0  0  0  0  0  0  0  0  0  0
    0.0836   -0.9821   -1.2441 H   0  0  0  0  0  0  0  0  0  0  0  0
   -0.8816   -0.4277    0.6027 C   0  0  0  0  0  0  0  0  0  0  0  0
   -1.7321    0.9247   -0.1869 Cl  0  0  0  0  0  0  0  0  0  0  0  0
    1.5459    0.4889   -0.1545 Cl  0  0  0  0  0  0  0  0  0  0  0  0
    0.2783   -2.9321    0.3083 H   0  0  0  0  0  0  0  0  0  0  0  0
    1.8765   -2.3528   -0.1752 H   0  0  0  0  0  0  0  0  0  0  0  0
    1.2435   -1.9527    1.4234 H   0  0  0  0  0  0  0  0  0  0  0  0
   -1.5884   -1.2561    0.6639 H   0  0  0  0  0  0  0  0  0  0  0  0
   -0.6060   -0.0971    1.6042 H   0  0  0  0  0  0  0  0  0  0  0  0
  1  2  1  0  0  0  0
  2  3  1  0  0  0  0
  2  4  1  0  0  0  0
  4  5  1  0  0  0  0
  2  6  1  0  0  0  0
  1  7  1  0  0  0  0
  1  8  1  0  0  0  0
  1  9  1  0  0  0  0
  4 10  1  0  0  0  0
  4 11  1  0  0  0  0
M  END
