24
 xtb: 6.7.1 (edcfbbe)
C           -2.59003661449719       -0.62707576155444       -0.30283258150643
C           -1.21269308631300       -0.26632956061643        0.22147954954707
H           -1.23989335129669       -0.23209071014693        1.32393439595697
C           -0.70829051282221        1.07092230258899       -0.31795882662929
H           -0.71305415598030        1.03413728108829       -1.42108491467307
C            0.72017988068779        1.30183208066924        0.15267329713042
H            0.71337106905188        1.39708548167915        1.25288602249784
C            1.60523248032535        0.12598836094375       -0.22399269905513
H            1.66325358221213        0.03997971983318       -1.32078664088366
C            0.98673916863619       -1.16006651823762        0.31375524601774
H            0.93657655094455       -1.12564305019520        1.41937469800326
O           -0.32715813950899       -1.31379670504096       -0.21369405881037
O            1.78024199164420       -2.22077693959799       -0.13111710850448
O            2.88840770239643        0.37512779163783        0.34503241989092
O            1.16845231380998        2.51794219317136       -0.44209212302555
O           -1.57655334442296        2.09123137625769        0.15893637847256
O           -3.04650893834497       -1.86505228652981        0.22672518144372
H           -2.55634982844201       -0.64850598013110       -1.40430480728166
H           -3.30292606532323        0.14047863519144        0.00733911116060
H            1.49181663650619       -3.02942190256951        0.30831312889085
H            3.46331654153670       -0.35690423413487        0.09204045185586
H            2.08470732011009        2.64866773806353       -0.16884333282956
H           -1.15456479572056        2.93448877461692       -0.04934902751971
H           -2.37985610781661       -2.52410244204329       -0.00094258842517
