17
 xtb: 6.7.1 (edcfbbe)
C           -2.87453118508470       -0.41199286855631       -0.00826827685136
N           -1.82249188283913        0.57634899807801       -0.00625457437557
C           -0.48299026735271        0.26812827245361       -0.00187322786413
C           -0.03031930018638       -1.06257445411776        0.00361925834709
C            1.33386098195438       -1.33669410242538        0.00833900473521
C            2.27566501136017       -0.31380639126340        0.00772377323073
C            1.82850942115713        1.00805520107205        0.00221287538240
C            0.47495828545423        1.30074737026037       -0.00253775069309
H           -3.84040048388239        0.09847510096368       -0.01315777780556
H           -2.83810748300815       -1.05570172380125        0.88321898105080
H           -2.83115035341373       -1.05995015126652       -0.89640470322441
H           -2.07736653687449        1.54650278083019       -0.01231992008096
H           -0.74015840489581       -1.88188093232043        0.00424801223338
H            1.66057416583837       -2.37243538337509        0.01253707764315
H            3.33645428879348       -0.53798243548583        0.01143640404715
H            2.54548466690635        1.82371484030273        0.00161055552013
H            0.14167124927631        2.33569788109294       -0.00674994319075
