 xtb: 6.7.1 (edcfbbe)
          04152519113D

 13 13  0     0  0            999 V2000
    0.0022    1.2483    0.1141 C   0  0  0  0  0  0  0  0  0  0  0  0
    1.2254    0.3371   -0.0899 C   0  0  0  0  0  0  0  0  0  0  0  0
    0.6586   -1.0452    0.0387 C   0  0  0  0  0  0  0  0  0  0  0  0
   -0.6622   -1.0429    0.0388 C   0  0  0  0  0  0  0  0  0  0  0  0
   -1.2242    0.3415   -0.0898 C   0  0  0  0  0  0  0  0  0  0  0  0
    0.0037    2.0950   -0.5701 H   0  0  0  0  0  0  0  0  0  0  0  0
    0.0029    1.6395    1.1320 H   0  0  0  0  0  0  0  0  0  0  0  0
    1.6637    0.4679   -1.0837 H   0  0  0  0  0  0  0  0  0  0  0  0
    2.0112    0.5291    0.6423 H   0  0  0  0  0  0  0  0  0  0  0  0
    1.2961   -1.9107    0.0970 H   0  0  0  0  0  0  0  0  0  0  0  0
   -1.3029   -1.9061    0.0971 H   0  0  0  0  0  0  0  0  0  0  0  0
   -1.6620    0.4738   -1.0836 H   0  0  0  0  0  0  0  0  0  0  0  0
   -2.0093    0.5363    0.6424 H   0  0  0  0  0  0  0  0  0  0  0  0
  1  2  1  0  0  0  0
  2  3  1  0  0  0  0
  3  4  2  0  0  0  0
  1  5  1  0  0  0  0
  4  5  1  0  0  0  0
  1  6  1  0  0  0  0
  1  7  1  0  0  0  0
  2  8  1  0  0  0  0
  2  9  1  0  0  0  0
  3 10  1  0  0  0  0
  4 11  1  0  0  0  0
  5 12  1  0  0  0  0
  5 13  1  0  0  0  0
M  END
