24
CONF1
C -2.9348424428 0.0001241642 0.0522355968
C -1.4584178755 0.0000801172 -0.3356048202
C -0.7431834795 1.2533747180 0.1801920832
C 0.7432945711 1.2533529735 -0.1799943778
C 1.4584440664 -0.0000768336 0.3356015549
C 0.7431784553 -1.2534062985 -0.1800774469
C -0.7433018078 -1.2533203855 0.1801003373
C 2.9347977898 -0.0001246896 -0.0525197266
H -3.4484224843 0.8861672301 -0.3357596903
H -3.4485648130 -0.8857048786 -0.3360603308
H -3.0456172031 -0.0000519331 1.1430430139
H -1.3854683183 0.0001213452 -1.4345792176
H -1.2306349333 2.1519750726 -0.2184356010
H -0.8533957383 1.2950104099 1.2742241059
H 0.8534748903 1.2951393408 -1.2740233433
H 1.2308281930 2.1518573376 0.2187502026
H 1.3856866459 -0.0001121544 1.4345884073
H 0.8533730673 -1.2951430604 -1.2741063470
H 1.2306236546 -2.1519775242 0.2186243771
H -1.2308367065 -2.1518496246 -0.2185855439
H -0.8535130179 -1.2950183342 1.2741301447
H 3.4485831046 0.8857381155 0.3356157831
H 3.0453567281 -0.0000158921 -1.1433508308
H 3.4484670148 -0.8861373997 0.3354269532
24
CONF2
C -2.4113094789 0.0001365652 0.5354870698
C -1.3837218068 0.0000808804 -0.6007895891
C -0.4992621941 1.2584618924 -0.5815194791
C 0.4993671027 1.2584905884 0.5814053974
C 1.3835931886 -0.0000648221 0.6007824842
C 0.4992904170 -1.2585712457 0.5813485321
C -0.4994270904 -1.2584233541 -0.5815145434
C 2.4115039812 -0.0000771016 -0.5352025233
H -3.0537159311 -0.8850845833 0.4779622072
H -1.9397011201 -0.0005441331 1.5226869501
H -3.0527855259 0.8860839662 0.4787352638
H -1.9455273794 0.0001236900 -1.5450142964
H 0.0473662411 1.3229028453 -1.5311370168
H -1.1297484819 2.1548446857 -0.5286793669
H 1.1299939568 2.1547737073 0.5284881541
H -0.0472846514 1.3231157792 1.5309939252
H 1.9451667981 -0.0001000055 1.5451420889
H 1.1298623245 -2.1548866512 0.5283116124
H -0.0472833928 -1.3232500560 1.5309755852
H 0.0471237026 -1.3229746710 -1.5311679574
H -1.1300236760 -2.1547251634 -0.5285980999
H 3.0536148073 -0.8855146717 -0.4776961937
H 3.0532495761 0.8856509769 -0.4780690226
H 1.9401547332 -0.0003835945 -1.5225253039
