 xtb: 6.7.1 (edcfbbe)
          04152519333D

 15 14  0     0  0            999 V2000
    2.0832    0.0747   -0.1144 C   0  0  0  0  0  0  0  0  0  0  0  0
    0.7541    0.6842    0.3217 C   0  0  0  0  0  0  0  0  0  0  0  0
   -0.4590    0.0080   -0.3330 C   0  0  0  0  0  0  0  0  0  0  0  0
   -0.3208    0.0208   -1.4288 H   0  0  0  0  0  0  0  0  0  0  0  0
   -1.7495    0.7433    0.0126 C   0  0  0  0  0  0  0  0  0  0  0  0
   -0.6176   -1.3283    0.1010 O   0  0  0  0  0  0  0  0  0  0  0  0
    2.9109    0.6364    0.3120 H   0  0  0  0  0  0  0  0  0  0  0  0
    2.1774    0.0972   -1.1988 H   0  0  0  0  0  0  0  0  0  0  0  0
    2.1757   -0.9572    0.2210 H   0  0  0  0  0  0  0  0  0  0  0  0
    0.7393    1.7423    0.0556 H   0  0  0  0  0  0  0  0  0  0  0  0
    0.6517    0.6048    1.4059 H   0  0  0  0  0  0  0  0  0  0  0  0
   -2.5940    0.2214   -0.4285 H   0  0  0  0  0  0  0  0  0  0  0  0
   -1.8823    0.7619    1.0909 H   0  0  0  0  0  0  0  0  0  0  0  0
   -1.7197    1.7613   -0.3651 H   0  0  0  0  0  0  0  0  0  0  0  0
    0.2010   -1.8060   -0.0679 H   0  0  0  0  0  0  0  0  0  0  0  0
  1  2  1  0  0  0  0
  2  3  1  0  0  0  0
  3  4  1  0  0  0  0
  3  5  1  0  0  0  0
  3  6  1  0  0  0  0
  1  7  1  0  0  0  0
  1  8  1  0  0  0  0
  1  9  1  0  0  0  0
  2 10  1  0  0  0  0
  2 11  1  0  0  0  0
  5 12  1  0  0  0  0
  5 13  1  0  0  0  0
  5 14  1  0  0  0  0
  6 15  1  0  0  0  0
M  END
