18
CONF2
C 0.0245146911 -2.4453768075 0.0941170482
C 1.2135040069 -1.7360324381 0.0047267997
C 1.1811516904 -0.3410912324 -0.0538685161
C -0.0241892873 0.3457347025 -0.0261542121
C -1.2097499351 -0.3831467555 0.0636852955
C -1.1945283373 -1.7721732845 0.1258573285
C -2.4989435271 0.3820872986 0.1131459110
F -2.6155506172 1.2427265063 -0.9314790157
F -3.5862117118 -0.4167109485 0.0900312886
F -2.5887520178 1.1400680554 1.2393731700
C 2.4835952538 0.3971012463 -0.1452734143
F 3.1763237160 0.0609758484 -1.2652397325
F 2.3285813153 1.7377315206 -0.1658904789
F 3.2974381256 0.1079744980 0.9043184960
H 0.0432483926 -3.5283820998 0.1409289349
H 2.1631231052 -2.2611698270 -0.0184997428
H -0.0471816734 1.4286872065 -0.0716387421
H -2.1209918601 -2.3297281019 0.1974768817
