17
CONF1
C -1.8699262381 -1.4092693423 -0.0067830690
C -0.5482532562 -0.6974845106 -0.0022926220
C 0.6536749791 -1.4042132799 -0.0001145393
C 1.8898265960 -0.7588893987 -0.0011365497
C 1.9244171259 0.6337508919 -0.0028832748
C 0.7410856145 1.3629739293 -0.0024072507
C -0.5021888503 0.7141821030 -0.0047041276
N -1.6788080940 1.4558570875 -0.0725197963
H -1.7249352871 -2.4916687175 -0.0298271147
H -2.4634260645 -1.1696046383 0.8851781269
H -2.4761239630 -1.1282081588 -0.8767124099
H 0.6143032384 -2.4906254145 0.0026541344
H 2.8089708188 -1.3356294474 0.0003854357
H 2.8750146305 1.1587905172 0.0000552965
H 0.7685569849 2.4497083105 -0.0007432398
H -1.5819820359 2.4110748355 0.2418054028
H -2.4901472584 1.0091173471 0.3305542715
