15
CONF1
C 2.0821044520 -1.0278877502 0.0000130250
C 2.3289960825 0.3518438852 0.0000660721
C 1.2951922386 1.2728867531 0.0001153385
C -0.0302986489 0.8270729412 0.0001134692
C -0.2960149656 -0.5662627768 -0.0002117220
C 0.7760074269 -1.4743083719 -0.0001059549
C -1.6596249366 -1.0473517465 -0.0010604270
O -2.6531407205 -0.3177311901 0.0003550430
O -1.0187078358 1.7285927797 0.0000168536
H 2.9070844539 -1.7306993361 -0.0000000071
H 3.3535242009 0.7108313816 0.0000991114
H 1.4854858171 2.3402772118 0.0001092426
H 0.5544206296 -2.5386435062 -0.0001517693
H -1.7851537348 -2.1495076830 0.0010979478
H -1.8682341979 1.2190571269 -0.0000211975
