17
 xtb: 6.7.1 (edcfbbe)
C            2.78186828344718       -0.00007868436954       -0.73590192559838
C            1.99242894249228        0.00014107168630        0.58069839817496
C            0.50960269892898        0.00005536706653        0.33119579845933
C           -0.20546500097846        1.18855231444098        0.18291707581876
C           -1.56570109974289        1.13725956548441       -0.10029405891391
N           -2.25367692621729       -0.00008474669573       -0.24458844991247
C           -1.56560395993078       -1.13735917394382       -0.10019704264245
C           -0.20535466800750       -1.18851573436349        0.18297571818236
H            2.53830788613598       -0.88412793211479       -1.33289630105899
H            3.85895357316552        0.00021981745216       -0.54483143879995
H            2.53790955334908        0.88351023819129       -1.33341702002633
H            2.26414290312006        0.88212489709433        1.17123358930066
H            2.26420291810793       -0.88160140179528        1.17156807480355
H            0.29210881347411        2.14854435356474        0.29074633234132
H           -2.13350258990656        2.05951987756267       -0.21527695555671
H           -2.13330293477615       -2.05967577077158       -0.21523007546034
H            0.29230788818508       -2.14845828625626        0.29083398179639
