 xtb: 6.7.1 (edcfbbe)
          04162509443D

 10 10  0     0  0            999 V2000
   -1.7100    0.7287   -0.4829 C   0  0  0  0  0  0  0  0  0  0  0  0
   -0.8579    0.1133    0.6176 C   0  0  0  0  0  0  0  0  0  0  0  0
    0.4894   -0.1990    0.0946 N   0  0  0  0  0  0  0  0  0  0  0  0
    0.8797   -1.3343    0.2132 O   0  0  0  0  0  0  0  0  0  0  0  0
    1.1070    0.7053   -0.4103 O   0  0  0  0  0  0  0  0  0  0  0  0
   -1.2016    1.5926   -0.9045 H   0  0  0  0  0  0  0  0  0  0  0  0
   -1.8931    0.0073   -1.2758 H   0  0  0  0  0  0  0  0  0  0  0  0
   -2.6652    1.0474   -0.0759 H   0  0  0  0  0  0  0  0  0  0  0  0
   -1.2864   -0.8144    0.9994 H   0  0  0  0  0  0  0  0  0  0  0  0
   -0.7270    0.8278    1.4342 H   0  0  0  0  0  0  0  0  0  0  0  0
  1  2  1  0  0  0  0
  2  3  1  0  0  0  0
  3  4  4  0  0  0  0
  3  5  4  0  0  0  0
  4  5  1  0  0  0  0
  1  6  1  0  0  0  0
  1  7  1  0  0  0  0
  1  8  1  0  0  0  0
  2  9  1  0  0  0  0
  2 10  1  0  0  0  0
M  END
