16
CONF1
C -1.4325891185 -1.2119684216 -0.0149819246
C -0.0518713750 -1.2126762937 -0.0038551761
C 0.6338042245 -0.0000126628 0.0014730300
C -0.0518762420 1.2126401659 -0.0031794661
C -1.4325809026 1.2119416063 -0.0142872870
C -2.1477118430 -0.0000049075 -0.0214424440
N -3.5214934884 0.0000228810 -0.0872615752
N 2.0927335862 0.0000879899 0.0120541252
O 2.6651098137 1.0875719923 0.0162165685
O 2.6652030273 -1.0875151209 0.0160464753
H -1.9730712907 -2.1537318077 -0.0239555809
H 0.5081237631 -2.1394265416 0.0019410463
H 0.5080853221 2.1393746574 0.0031370140
H -1.9730580804 2.1537043614 -0.0227023161
H -3.9984819055 0.8452306420 0.1792295600
H -3.9984955288 -0.8453259545 0.1787614650
