 xtb: 6.7.1 (edcfbbe)
          04152519113D

  5  4  0     0  0            999 V2000
   -0.7314   -0.0000   -0.0000 C   0  0  0  0  0  0  0  0  0  0  0  0
    0.6327    0.0000    0.0000 F   0  0  0  0  0  0  0  0  0  0  0  0
   -1.0697   -0.0576   -1.0352 H   0  0  0  0  0  0  0  0  0  0  0  0
   -1.0697   -0.8677    0.5674 H   0  0  0  0  0  0  0  0  0  0  0  0
   -1.0697    0.9252    0.4677 H   0  0  0  0  0  0  0  0  0  0  0  0
  1  2  1  0  0  0  0
  1  3  1  0  0  0  0
  1  4  1  0  0  0  0
  1  5  1  0  0  0  0
M  END
