 xtb: 6.7.1 (edcfbbe)
          04152519433D

 12 11  0     0  0            999 V2000
   -1.6019    0.1003   -0.5094 C   0  0  0  0  0  0  0  0  0  0  0  0
   -0.6682   -0.4717    0.5530 C   0  0  0  0  0  0  0  0  0  0  0  0
    0.6727    0.2652    0.6136 C   0  0  0  0  0  0  0  0  0  0  0  0
    1.4760    0.0609   -0.5236 O   0  0  0  0  0  0  0  0  0  0  0  0
   -1.1917   -0.0350   -1.5089 H   0  0  0  0  0  0  0  0  0  0  0  0
   -2.5645   -0.4040   -0.4752 H   0  0  0  0  0  0  0  0  0  0  0  0
   -1.7661    1.1634   -0.3420 H   0  0  0  0  0  0  0  0  0  0  0  0
   -0.4790   -1.5269    0.3468 H   0  0  0  0  0  0  0  0  0  0  0  0
   -1.1421   -0.3961    1.5330 H   0  0  0  0  0  0  0  0  0  0  0  0
    0.4941    1.3404    0.7674 H   0  0  0  0  0  0  0  0  0  0  0  0
    1.2638   -0.1082    1.4532 H   0  0  0  0  0  0  0  0  0  0  0  0
    0.9849    0.3533   -1.2992 H   0  0  0  0  0  0  0  0  0  0  0  0
  1  2  1  0  0  0  0
  2  3  1  0  0  0  0
  3  4  1  0  0  0  0
  1  5  1  0  0  0  0
  1  6  1  0  0  0  0
  1  7  1  0  0  0  0
  2  8  1  0  0  0  0
  2  9  1  0  0  0  0
  3 10  1  0  0  0  0
  3 11  1  0  0  0  0
  4 12  1  0  0  0  0
M  END
