 xtb: 6.7.1 (edcfbbe)
          04152519113D

  5  4  0     0  0            999 V2000
    0.0000    0.0000    0.0000 C   0  0  0  0  0  0  0  0  0  0  0  0
   -1.0400    0.2815   -0.1007 H   0  0  0  0  0  0  0  0  0  0  0  0
    0.4417    0.5408    0.8268 H   0  0  0  0  0  0  0  0  0  0  0  0
    0.0694   -1.0637    0.1866 H   0  0  0  0  0  0  0  0  0  0  0  0
    0.5290    0.2414   -0.9127 H   0  0  0  0  0  0  0  0  0  0  0  0
  1  2  1  0  0  0  0
  1  3  1  0  0  0  0
  1  4  1  0  0  0  0
  1  5  1  0  0  0  0
M  END
