17
CONF1
C 0.5145439197 1.3345398729 0.5533833973
C -0.0003999218 -0.0000487181 0.0003798705
C 1.0371993014 -0.5877307431 -0.9643911346
C -1.3192457270 0.2307930993 -0.7476628516
C -0.2328589334 -0.9777887748 1.1589321800
H 0.6919854056 2.0523304050 -0.2552390305
H -0.2099381377 1.7780801320 1.2454223730
H 1.4569600943 1.1959100966 1.0946921227
H 1.9916038029 -0.7625264247 -0.4554987717
H 1.2208945163 0.0934258685 -1.8026310296
H 0.6931762754 -1.5434356210 -1.3751565355
H -1.1785054683 0.9257119567 -1.5829736067
H -1.7095902330 -0.7092896697 -1.1530057770
H -2.0797524745 0.6530149175 -0.0814977946
H -0.6014330660 -1.9415499690 0.7905442484
H -0.9711334461 -0.5814133501 1.8648689135
H 0.6965320218 -1.1600064215 1.7098262902
