24
 xtb: 6.7.1 (edcfbbe)
C           -2.52158669839827       -1.00610123270994        0.38413532860893
C           -1.11190379515441       -0.49414371530417        0.62152474050633
H           -0.93806898712441       -0.43006586025781        1.71109922486157
C           -0.84821820812024        0.87705636382778       -0.00889167414457
H           -1.03732785430151        0.81551996985394       -1.08898119434581
C            0.60336640239640        1.25096762553298        0.22870837643812
H            0.76785816198696        1.35082445687757        1.31657784054005
C            1.52982115389034        0.16740276168431       -0.30496505196078
H            1.38109356583501        0.09484862050752       -1.39975735645848
C            1.15896415685150       -1.18405944055157        0.30847302970026
H            1.31593724870752       -1.16501133708441        1.39859891931765
O           -0.22521759388461       -1.45092858793648        0.02916056468500
O            1.91553114745036       -2.23687102546821       -0.17905685452470
O            2.88408069098512        0.44695823376937        0.00651288575161
O            0.96381788435009        2.46294141559395       -0.43228779905877
O           -1.64659858714658        1.90512908952998        0.59004250218689
O           -2.86047961243425       -1.03811214596265       -0.99896719705344
H           -3.23980514089929       -0.33815748398962        0.87030460570867
H           -2.61629218434006       -2.00111806391548        0.84292615199631
H            2.00083654724124       -2.14076595369117       -1.13588715090554
H            3.03117224691937        1.37534558097706       -0.21668204038383
H            0.35863974630198        3.14453580596311       -0.11425814384753
H           -2.49174267159264        1.93304807386921        0.12938406887858
H           -2.22163911070829       -1.62081119332845       -1.42796882657394
