 xtb: 6.7.1 (edcfbbe)
          04152519053D

 18 18  0     0  0            999 V2000
    2.4103    0.0000   -0.0096 C   0  0  0  0  0  0  0  0  0  0  0  0
    0.9977    0.0000    0.2977 N   0  0  0  0  0  0  0  0  0  0  0  0
    0.3299   -1.1854   -0.2112 C   0  0  0  0  0  0  0  0  0  0  0  0
   -1.1362   -1.1562    0.2195 C   0  0  0  0  0  0  0  0  0  0  0  0
   -1.7878    0.0000   -0.2512 O   0  0  0  0  0  0  0  0  0  0  0  0
   -1.1362    1.1562    0.2195 C   0  0  0  0  0  0  0  0  0  0  0  0
    0.3299    1.1854   -0.2112 C   0  0  0  0  0  0  0  0  0  0  0  0
    2.6117    0.0001   -1.0928 H   0  0  0  0  0  0  0  0  0  0  0  0
    2.8681   -0.8852    0.4294 H   0  0  0  0  0  0  0  0  0  0  0  0
    2.8681    0.8853    0.4295 H   0  0  0  0  0  0  0  0  0  0  0  0
    0.3831   -1.2373   -1.3142 H   0  0  0  0  0  0  0  0  0  0  0  0
    0.8158   -2.0704    0.2052 H   0  0  0  0  0  0  0  0  0  0  0  0
   -1.6795   -2.0060   -0.1974 H   0  0  0  0  0  0  0  0  0  0  0  0
   -1.1867   -1.1905    1.3183 H   0  0  0  0  0  0  0  0  0  0  0  0
   -1.6795    2.0060   -0.1974 H   0  0  0  0  0  0  0  0  0  0  0  0
   -1.1868    1.1905    1.3183 H   0  0  0  0  0  0  0  0  0  0  0  0
    0.3831    1.2374   -1.3142 H   0  0  0  0  0  0  0  0  0  0  0  0
    0.8158    2.0705    0.2052 H   0  0  0  0  0  0  0  0  0  0  0  0
  1  2  1  0  0  0  0
  2  3  1  0  0  0  0
  3  4  1  0  0  0  0
  4  5  1  0  0  0  0
  5  6  1  0  0  0  0
  2  7  1  0  0  0  0
  6  7  1  0  0  0  0
  1  8  1  0  0  0  0
  1  9  1  0  0  0  0
  1 10  1  0  0  0  0
  3 11  1  0  0  0  0
  3 12  1  0  0  0  0
  4 13  1  0  0  0  0
  4 14  1  0  0  0  0
  6 15  1  0  0  0  0
  6 16  1  0  0  0  0
  7 17  1  0  0  0  0
  7 18  1  0  0  0  0
M  END
