15
 xtb: 6.7.1 (edcfbbe)
C            1.73095679219201        0.41552130175415        0.60052953747355
C            0.89035282166596        0.39046530070636       -0.67543755650909
C           -0.55934771321364       -0.06982358860701       -0.47763738151464
H           -1.04299277989297       -0.08362994511402       -1.46223381454380
C           -1.36670424882358        0.83143931041987        0.45002844371290
O           -0.61985444564321       -1.43679847803838       -0.04157896004411
H            1.34905530448152        1.13436658153841        1.33207219321696
H            2.76333583627500        0.69729763887162        0.37453400616075
H            1.76734693039233       -0.57142684212605        1.07529210858109
H            1.35506039769139       -0.28389459219864       -1.40381376570941
H            0.87684523124020        1.39000046078331       -1.12923590503041
H           -0.95923688812335        0.81904276728690        1.46758629843290
H           -1.35550570155913        1.86849586480234        0.09815427072519
H           -2.40407814064798        0.48967887762752        0.49735572785119
H           -0.33052613795547       -1.46310872737863        0.87792827390697
