14
CONF1
C -2.4037505737 0.0363742002 -0.0000392867
C -0.9050924574 0.0112972034 0.0000783064
C -0.1814634072 1.2092471382 0.0000233694
C 1.2042005379 1.1706677062 -0.0001922647
C 1.8395288906 -0.0687555735 -0.0002861948
C 1.0483521157 -1.2070339033 -0.0001076042
N -0.2950450569 -1.1865273841 0.0000256836
H -2.7802903908 0.5653121183 -0.8822461434
H -2.8119993418 -0.9753933953 0.0035273173
H -2.7805536035 0.5718679735 0.8780519757
H -0.7118240663 2.1566574794 0.0001126448
H 1.7813397483 2.0901234465 -0.0003085138
H 2.9208679713 -0.1513641728 -0.0004188320
H 1.5103766156 -2.1922043138 -0.0002351103
