14
CONF2
C 2.4049788014 0.0273336716 -0.0020754069
C 0.9033930119 0.0330882682 0.0030072497
C 0.1730872716 1.2246036716 0.0026325101
C -1.2149377701 1.1701874174 -0.0000302802
C -1.8369042164 -0.0720519475 -0.0017563513
C -1.0302811341 -1.2058028606 -0.0010317329
N 0.3041140537 -1.1678877034 0.0015282359
H 2.7754408451 -0.4272163284 -0.9267773891
H 2.8141710448 1.0367388208 0.0810109334
H 2.7812810074 -0.5807329664 0.8257515548
H 0.6894602140 2.1793894736 0.0045758127
H -1.8011795286 2.0841229284 0.0001561804
H -2.9177321263 -0.1637177462 -0.0027403793
H -1.4796734456 -2.1982562969 -0.0011739583
