13
 xtb: 6.7.1 (edcfbbe)
C           -1.69772506184900        0.62703138071241       -0.62648258175576
C           -1.20730655782075       -0.08093334198452        0.63181663740204
C            0.04664621361097       -0.94095752805942        0.37864689914368
C            1.19915431687539       -0.15374589857906       -0.02864484964606
C            2.13990141985178        0.52690097186560       -0.35043374642351
H           -2.57882645641035        1.23987383493728       -0.41572931363862
H           -0.91866539362357        1.27900976908780       -1.03322975292930
H           -1.96832807940806       -0.09744897791283       -1.40235506807534
H           -0.97791628761452        0.65286361127221        1.41228678381339
H           -1.99255293613053       -0.73591829480552        1.02683803159410
H           -0.17248397082839       -1.68513566286650       -0.39880524489644
H            0.30154181447123       -1.50195776816888        1.28615461749450
H            2.97389007428086        1.11930871496894       -0.63843150321826
