26
CONF1
C 3.5130624790 -0.0000037458 -0.0000062388
C 2.8254294064 -1.2093370447 -0.0000049365
C 1.4233979433 -1.2339383707 0.0000014237
C 0.6806374913 -2.4577510694 0.0000059005
C -0.6806404437 -2.4577498672 0.0000079031
C -1.4233988840 -1.2339360422 0.0000035833
C -2.8254302793 -1.2093324564 -0.0000018908
C -3.5130613338 0.0000019256 -0.0000085037
C -2.8254281768 1.2093356708 -0.0000070751
C -1.4233971796 1.2339374268 -0.0000000510
C -0.7099283554 0.0000000800 0.0000031318
C 0.7099290059 -0.0000011191 0.0000034865
C 1.4234001721 1.2339350175 0.0000035747
C 2.8254312231 1.2093310905 -0.0000008649
C 0.6806413979 2.4577490409 0.0000062928
C -0.6806364088 2.4577500964 0.0000036025
H 4.5985582231 -0.0000041425 -0.0000126534
H 3.3698354760 -2.1492191921 -0.0000087856
H 1.2323086295 -3.3936096491 0.0000071649
H -1.2323128338 -3.3936076015 0.0000111047
H -3.3698377619 -2.1492136722 -0.0000012434
H -4.5985570122 0.0000034330 -0.0000151489
H -3.3698355022 2.1492169622 -0.0000124437
H 3.3698400950 2.1492116049 -0.0000010955
H 1.2323140314 3.3936067568 0.0000099623
H -1.2323071950 3.3936087864 0.0000046499
