26
CONF1
C 3.5122977591 -0.0000036307 -0.0000062397
C 2.8241497456 -1.2074820982 -0.0000046857
C 1.4232154633 -1.2329234361 0.0000015898
C 0.6799868627 -2.4550005103 0.0000060002
C -0.6799902944 -2.4549985960 0.0000078350
C -1.4232172466 -1.2329207909 0.0000035550
C -2.8241503372 -1.2074768413 -0.0000018855
C -3.5122958396 0.0000019514 -0.0000084851
C -2.8241482993 1.2074800425 -0.0000070227
C -1.4232155469 1.2329220625 0.0000000456
C -0.7095906919 0.0000000472 0.0000031494
C 0.7095874061 -0.0000010717 0.0000035613
C 1.4232175786 1.2329201183 0.0000035426
C 2.8241514525 1.2074762203 -0.0000009541
C 0.6799906730 2.4549984563 0.0000063098
C -0.6799863501 2.4549987436 0.0000037476
H 4.5976165555 -0.0000041199 -0.0000125158
H 3.3696143531 -2.1467959947 -0.0000085549
H 1.2297654206 -3.3919935504 0.0000074333
H -1.2297689878 -3.3919909348 0.0000111212
H -3.3696155592 -2.1467890519 -0.0000015151
H -4.5976133176 0.0000033200 -0.0000150948
H -3.3696132271 2.1467923805 -0.0000122887
H 3.3696186264 2.1467886040 -0.0000013647
H 1.2297706430 3.3919906263 0.0000099166
H -1.2297634568 3.3919919658 0.0000048061
