24
 xtb: 6.7.1 (edcfbbe)
C           -2.12167588889284       -0.90124037877150       -0.28203439769787
C           -1.15139757566885       -0.34185343789406        0.76141880851980
H           -1.72171492770155       -0.38480855109417        1.70361994088964
C           -0.71498637440496        1.11529331046509        0.56557494861801
H           -1.57837431484221        1.70458704667466        0.22022282570550
C            0.43404095257687        1.29351247288464       -0.44036708305328
H            0.86340882116790        2.28594567267966       -0.25772374663705
C            1.56478326211539        0.28409187532995       -0.14561540930783
H            2.22371532566139        0.24491457818159       -1.01848673030861
C            1.08021500794509       -1.14339663656010        0.14741518659874
H            1.87682416134743       -1.66226811256499        0.69162254115840
O           -0.03065644311822       -1.21081719158641        1.01977726321031
O            0.83302797753005       -1.83135138728652       -1.09260814282606
O            2.35254786484361        0.71469138878854        0.96103087203461
O           -0.00376798461847        1.28806150691837       -1.78137259098889
O           -0.20862912393892        1.64858400840341        1.80561516634202
O           -1.66831631019302       -0.89247224131518       -1.63108873148827
H           -3.03374638884930       -0.29344259356730       -0.25632144019155
H           -2.38788374650789       -1.92274448622563        0.02774138777909
H            0.81607581929762       -2.77615543938798       -0.89370394960225
H            1.73360802702089        1.00787022654603        1.64653074028644
H           -0.66188704278855        0.57617285529108       -1.89882648456451
H           -0.80405134046646        1.39748422957984        2.52044974714979
H           -0.84302289424873       -1.41854305223429       -1.65127072601699
