17
CONF1
C -2.7575716995 -0.7845677201 0.0004864528
O -1.7948174390 0.2380886527 -0.0004576896
C -0.4637115754 -0.1233360376 -0.0002289271
C 0.0225412495 -1.4178853591 -0.0001998033
C 1.3923952110 -1.6427347003 0.0000060437
C 2.2749542572 -0.5813183904 0.0001175646
C 1.7970261551 0.7191221103 0.0001153535
C 0.4340227446 0.9581557562 -0.0000163019
O -0.0327780741 2.2346203400 0.0000955357
H -2.6750804177 -1.4109437030 0.8942897702
H -2.6761920828 -1.4116230143 -0.8930768960
H -3.7233330599 -0.2811672842 0.0008952239
H -0.6518831272 -2.2596474747 -0.0002510542
H 1.7596158870 -2.6576011884 0.0000650108
H 3.3392051014 -0.7591065885 0.0002082131
H 2.4663964383 1.5641876282 0.0002883143
H -0.9989040315 2.1960683503 -0.0000110281
17
CONF2
C -2.7589598708 -0.7936992329 0.0001827410
O -1.8007379515 0.2326385438 -0.0001364616
C -0.4833107149 -0.1126806434 -0.0000838960
C 0.0070294701 -1.4089647869 -0.0001069309
C 1.3741254156 -1.6498847025 -0.0000258210
C 2.2661948094 -0.5989644396 0.0000793754
C 1.7895554883 0.7036455489 0.0000797036
C 0.4305115350 0.9593742627 -0.0000070619
O -0.0720468791 2.2249877126 -0.0000103975
H -2.6781783739 -1.4221968853 0.8937776340
H -2.6786109479 -1.4223661563 -0.8933332778
H -3.7256236781 -0.2924111781 0.0003648408
H -0.6714793763 -2.2470650923 -0.0001948101
H 1.7312210341 -2.6683793301 -0.0000432217
H 3.3297751105 -0.7805839896 0.0001593569
H 2.4817610643 1.5356363502 0.0001583610
H 0.6562223957 2.8578934270 0.0000348540
