17
CONF1
C -2.7598378521 -0.7888977960 0.0004835105
O -1.7881200493 0.2526630704 -0.0002273690
C -0.4658096881 -0.1195300983 -0.0001264179
C 0.0131856540 -1.4230069184 -0.0001384317
C 1.3914822827 -1.6521861763 -0.0000181026
C 2.2771453308 -0.5836114350 0.0001128042
C 1.7975344788 0.7254415641 0.0001119717
C 0.4319896387 0.9630648064 -0.0000131297
O -0.0317862733 2.2450204141 -0.0000024244
H -2.6657146864 -1.4140562469 0.8973770281
H -2.6664993297 -1.4145941059 -0.8961191464
H -3.7317706983 -0.2940958384 0.0007462885
H -0.6707096372 -2.2631973475 -0.0002536425
H 1.7606144562 -2.6717912088 -0.0000265541
H 3.3471484634 -0.7605554234 0.0002248200
H 2.4709198223 1.5757812041 0.0002303463
H -0.9978858849 2.2038623729 -0.0000358306
17
CONF2
C -2.7552598195 -0.7972197394 0.0001626607
O -1.7978923879 0.2554175333 -0.0000627065
C -0.4837243815 -0.1016765712 -0.0000379121
C -0.0034509067 -1.4082292040 -0.0000595146
C 1.3706779352 -1.6587090960 -0.0000169237
C 2.2707914170 -0.6050577969 0.0000467244
C 1.7967170688 0.7071066249 0.0000575614
C 0.4337590636 0.9679643606 0.0000116498
O -0.0889166821 2.2306782793 0.0000214407
H -2.6596332354 -1.4238560276 0.8967432758
H -2.6599284743 -1.4239928606 -0.8963551222
H -3.7311339337 -0.3102248062 0.0002817696
H -0.6944154995 -2.2420148394 -0.0001151569
H 1.7244848828 -2.6839091500 -0.0000330145
H 3.3392407897 -0.7903791521 0.0000903556
H 2.4954667183 1.5407348717 0.0001120180
H 0.6406656834 2.8603469941 0.0000478713
