 xtb: 6.7.1 (edcfbbe)
          04152519163D

 13 12  0     0  0            999 V2000
   -0.7510   -1.1574    0.0875 C   0  0  0  0  0  0  0  0  0  0  0  0
    0.0000   -0.0000   -0.3490 N   0  0  0  0  0  0  0  0  0  0  0  0
   -0.6269    1.2291    0.0875 C   0  0  0  0  0  0  0  0  0  0  0  0
    1.3779   -0.0716    0.0876 C   0  0  0  0  0  0  0  0  0  0  0  0
   -0.2807   -2.0574   -0.3062 H   0  0  0  0  0  0  0  0  0  0  0  0
   -1.7645   -1.0947   -0.3061 H   0  0  0  0  0  0  0  0  0  0  0  0
   -0.8056   -1.2416    1.1854 H   0  0  0  0  0  0  0  0  0  0  0  0
   -0.6726    1.3184    1.1853 H   0  0  0  0  0  0  0  0  0  0  0  0
   -1.6414    1.2718   -0.3063 H   0  0  0  0  0  0  0  0  0  0  0  0
   -0.0658    2.0754   -0.3061 H   0  0  0  0  0  0  0  0  0  0  0  0
    1.4780   -0.0768    1.1854 H   0  0  0  0  0  0  0  0  0  0  0  0
    1.9221    0.7856   -0.3061 H   0  0  0  0  0  0  0  0  0  0  0  0
    1.8303   -0.9807   -0.3061 H   0  0  0  0  0  0  0  0  0  0  0  0
  1  2  1  0  0  0  0
  2  3  1  0  0  0  0
  2  4  1  0  0  0  0
  1  5  1  0  0  0  0
  1  6  1  0  0  0  0
  1  7  1  0  0  0  0
  3  8  1  0  0  0  0
  3  9  1  0  0  0  0
  3 10  1  0  0  0  0
  4 11  1  0  0  0  0
  4 12  1  0  0  0  0
  4 13  1  0  0  0  0
M  END
