12
 xtb: 6.7.1 (edcfbbe)
C           -2.05383096973202       -0.32140992488283       -0.46364522100917
C           -0.94895760755416        0.17370560912505        0.46065382591176
C            0.39396768742409        0.28288788050879       -0.25160528640488
O            0.64678227208061       -0.30631341590210       -1.28938811794850
N            1.30799773916695        1.09362508809797        0.36587750309125
H           -2.24523138751439        0.40100541486490       -1.26145422612185
H           -1.76104352541372       -1.26132540470284       -0.93513708086312
H           -2.98141747540953       -0.47673222914698        0.09354581180310
H           -0.80979529948021       -0.52645325621418        1.29646754068616
H           -1.21118714573482        1.14012964947888        0.90893183053011
H            1.13226365485231        1.49390951253913        1.27129984597307
H            2.25140919957509        1.10004708168518        0.01404099501656
