12
 xtb: 6.7.1 (edcfbbe)
C           -1.59070291213262        0.16276995464801        0.50056287463828
C           -0.67774976164401       -0.48930579435667       -0.53502009295684
C            0.68349064097002        0.19035835686991       -0.63751458626110
O            1.41104889015440        0.17294636709177        0.59478294160020
H           -2.54808385471097       -0.36162156159597        0.57339732620752
H           -1.12050106380990        0.15936805179592        1.48761712146368
H           -1.79604492108264        1.20539703720649        0.23456595284038
H           -1.14821147016353       -0.46382110065442       -1.52694227367433
H           -0.53060737412702       -1.55182581976994       -0.29382666498105
H            1.27691988017087       -0.26616900495270       -1.44531524905237
H            0.55554618943253        1.25137814052042       -0.88064287030235
H            1.58678030377724       -0.74784617108796        0.81816582245386
