17
CONF1
C -2.8015545046 1.0535762667 0.0000515181
O -2.2199764250 -0.2465291819 -0.0000155978
C -0.8591992277 -0.3297559099 -0.0000104809
C -0.3341275518 -1.6280996731 0.0000007798
C 1.0393893977 -1.8006186035 0.0000141213
C 1.9069595281 -0.7091305653 0.0000155220
C 1.3667431740 0.5731816242 -0.0000012693
C -0.0139716927 0.7777338856 -0.0000153487
O 2.1455834173 1.6999378710 -0.0000046463
H -2.5151060800 1.6186055515 -0.8964124347
H -2.5150040492 1.6185539278 0.8965146239
H -3.8808720443 0.8962868283 0.0001074351
H -1.0154648516 -2.4704191023 0.0000031066
H 1.4500407960 -2.8051901128 0.0000267966
H 2.9831115618 -0.8557325685 0.0000297794
H -0.3820170426 1.7950036330 -0.0000321154
H 3.0722651517 1.4356947663 0.0000068860
