16
CONF1
C -2.9803088001 0.3525086335 0.0221219747
C -1.9676071157 -0.5184103630 -0.0155308870
C -0.5340476438 -0.2157427565 -0.0094072123
C 0.3822139425 -1.2769305233 -0.0005163530
C 1.7528993442 -1.0450200539 0.0091979005
C 2.2385785101 0.2582035395 0.0084721206
C 1.3403059194 1.3250793660 -0.0030096898
C -0.0268853327 1.0926635248 -0.0124491981
H -4.0081013763 0.0076043762 0.0127182066
H -2.8276562160 1.4262711224 0.0647580701
H -2.2057809305 -1.5808741048 -0.0516956169
H 0.0076787806 -2.2970306122 0.0002175538
H 2.4422808183 -1.8834195680 0.0168496502
H 3.3076386936 0.4443275775 0.0151489636
H 1.7113986714 2.3452349160 -0.0064543521
H -0.7079059769 1.9370704491 -0.0255073447
