17
CONF1
C -1.0924569482 -1.9153524938 -0.0001563356
C -0.0198291892 -0.8670094506 -0.0000134209
C 1.3224523908 -1.2476830860 0.0001708765
C 2.3521701289 -0.3105481961 0.0002177558
C 2.0646326291 1.0509498082 -0.0000071711
C 0.7384009729 1.4531055646 -0.0003326485
C -0.3053680242 0.5182706451 -0.0003788191
C -1.6728784473 1.0659961884 -0.0012933016
O -2.7076476831 0.4295256772 0.0001676775
H -1.7457585412 -1.8147062426 0.8712522193
H -1.7459226045 -1.8143159405 -0.8713968899
H -0.6456454008 -2.9127121900 -0.0004234148
H 1.5653223983 -2.3065163234 0.0002565831
H 3.3840936610 -0.6479178867 0.0004155241
H 2.8640941582 1.7840376133 0.0000307598
H 0.4897225727 2.5117029885 -0.0005008190
H -1.7005120969 2.1818795936 0.0002434594
17
CONF2
C -0.8282629436 -2.2922852535 0.0001417867
C 0.0704166052 -1.0823121762 0.0000504915
C 1.4555434830 -1.2561785967 -0.0002496634
C 2.3222315603 -0.1684646739 -0.0002434533
C 1.8200241948 1.1316080065 0.0000460596
C 0.4495827944 1.3271557227 0.0002635322
C -0.4293410213 0.2365731281 0.0002547328
C -1.8802483813 0.5132940886 0.0004047472
O -2.3620856336 1.6293678013 0.0000606794
H -1.4760108342 -2.3189784573 -0.8819328627
H -0.2290595713 -3.2053771048 -0.0003276175
H -1.4752120173 -2.3193835520 0.8827993528
H 1.8613493597 -2.2637297633 -0.0004853247
H 3.3946013574 -0.3374331465 -0.0004672869
H 2.4958269884 1.9803436053 0.0000869422
H 0.0200901931 2.3237460624 0.0004328410
H -2.5445302848 -0.3762076084 0.0011947226
