23
 xtb: 6.7.1 (edcfbbe)
C           -2.37419607386890       -1.03471396710368       -0.54948610977892
C           -1.49671266004785        0.00682183019929        0.11597595823249
O           -1.72225263681251        0.37296169499008        1.25192775327350
C           -0.35354908734843        0.58659018656948       -0.71493062600790
C            0.48958976367343       -0.50711896149587       -1.40129286807635
C            1.33471067455964       -1.27459944995045       -0.38255933208761
C            2.24553437169248       -0.32063988161017        0.39376316840312
C            1.42928374772043        0.77062931202526        1.08981273633065
C            0.54078209356063        1.52849641283092        0.09791354654634
H           -1.87397849671869       -2.00945057374833       -0.50316759916743
H           -3.32022469161755       -1.10655182223736       -0.01153173194302
H           -2.54834161041424       -0.81070951090994       -1.60617490731493
H           -0.86134453990196        1.16183111670139       -1.50675550098964
H           -0.14601394355312       -1.18962184655207       -1.97501289444444
H            1.15615481321383       -0.01867144641102       -2.12389823720077
H            0.67587743483661       -1.79883165062005        0.32543350326529
H            1.92692302359590       -2.04365980068877       -0.89158575584193
H            2.83958316861929       -0.87639378929103        1.12817541191577
H            2.95667270820438        0.14177378909058       -0.30588536411816
H            0.79806323937069        0.31923442374748        1.86360669049652
H            2.09671108056057        1.47677806197475        1.59683091426700
H           -0.07868884536677        2.25645830823296        0.62993513843246
H            1.17628945600897        2.08499717988091       -0.60399019766637
