 xtb: 6.7.1 (edcfbbe)
          04152519533D

 17 17  0     0  0            999 V2000
    2.7477    0.0202    0.7282 C   0  0  0  0  0  0  0  0  0  0  0  0
    1.9711    0.0004   -0.5901 C   0  0  0  0  0  0  0  0  0  0  0  0
    0.4951   -0.0254   -0.3264 C   0  0  0  0  0  0  0  0  0  0  0  0
   -0.1959   -1.2210   -0.1674 C   0  0  0  0  0  0  0  0  0  0  0  0
   -1.5508   -1.1905    0.1165 C   0  0  0  0  0  0  0  0  0  0  0  0
   -2.1694    0.0446    0.2352 C   0  0  0  0  0  0  0  0  0  0  0  0
   -1.5268    1.1902    0.0879 N   0  0  0  0  0  0  0  0  0  0  0  0
   -0.2353    1.1505   -0.1836 C   0  0  0  0  0  0  0  0  0  0  0  0
    2.4809    0.8991    1.3109 H   0  0  0  0  0  0  0  0  0  0  0  0
    3.8181    0.0409    0.5377 H   0  0  0  0  0  0  0  0  0  0  0  0
    2.5170   -0.8643    1.3181 H   0  0  0  0  0  0  0  0  0  0  0  0
    2.2587   -0.8823   -1.1656 H   0  0  0  0  0  0  0  0  0  0  0  0
    2.2257    0.8885   -1.1719 H   0  0  0  0  0  0  0  0  0  0  0  0
    0.3235   -2.1644   -0.2692 H   0  0  0  0  0  0  0  0  0  0  0  0
   -2.1132   -2.1032    0.2421 H   0  0  0  0  0  0  0  0  0  0  0  0
   -3.2256    0.1254    0.4563 H   0  0  0  0  0  0  0  0  0  0  0  0
    0.2455    2.1145   -0.2980 H   0  0  0  0  0  0  0  0  0  0  0  0
  1  2  1  0  0  0  0
  2  3  1  0  0  0  0
  3  4  4  0  0  0  0
  4  5  4  0  0  0  0
  5  6  4  0  0  0  0
  6  7  4  0  0  0  0
  3  8  4  0  0  0  0
  7  8  4  0  0  0  0
  1  9  1  0  0  0  0
  1 10  1  0  0  0  0
  1 11  1  0  0  0  0
  2 12  1  0  0  0  0
  2 13  1  0  0  0  0
  4 14  1  0  0  0  0
  5 15  1  0  0  0  0
  6 16  1  0  0  0  0
  8 17  1  0  0  0  0
M  END
