 xtb: 6.7.1 (edcfbbe)
          04152519153D

 21 21  0     0  0            999 V2000
    2.4833   -0.0001   -0.0804 C   0  0  0  0  0  0  0  0  0  0  0  0
    1.0140   -0.0001    0.3321 C   0  0  0  0  0  0  0  0  0  0  0  0
    0.3011    1.2492   -0.1874 C   0  0  0  0  0  0  0  0  0  0  0  0
   -1.1683    1.2517    0.2236 C   0  0  0  0  0  0  0  0  0  0  0  0
   -1.8700    0.0001   -0.2939 C   0  0  0  0  0  0  0  0  0  0  0  0
   -1.1684   -1.2516    0.2235 C   0  0  0  0  0  0  0  0  0  0  0  0
    0.3010   -1.2492   -0.1874 C   0  0  0  0  0  0  0  0  0  0  0  0
    2.5734   -0.0000   -1.1649 H   0  0  0  0  0  0  0  0  0  0  0  0
    2.9898    0.8822    0.3049 H   0  0  0  0  0  0  0  0  0  0  0  0
    2.9897   -0.8826    0.3048 H   0  0  0  0  0  0  0  0  0  0  0  0
    0.9590   -0.0001    1.4271 H   0  0  0  0  0  0  0  0  0  0  0  0
    0.7953    2.1433    0.1996 H   0  0  0  0  0  0  0  0  0  0  0  0
    0.3721    1.2745   -1.2776 H   0  0  0  0  0  0  0  0  0  0  0  0
   -1.2393    1.2811    1.3136 H   0  0  0  0  0  0  0  0  0  0  0  0
   -1.6614    2.1445   -0.1673 H   0  0  0  0  0  0  0  0  0  0  0  0
   -2.9154    0.0001    0.0226 H   0  0  0  0  0  0  0  0  0  0  0  0
   -1.8509    0.0001   -1.3863 H   0  0  0  0  0  0  0  0  0  0  0  0
   -1.2395   -1.2811    1.3136 H   0  0  0  0  0  0  0  0  0  0  0  0
   -1.6616   -2.1444   -0.1674 H   0  0  0  0  0  0  0  0  0  0  0  0
    0.7951   -2.1434    0.1995 H   0  0  0  0  0  0  0  0  0  0  0  0
    0.3720   -1.2745   -1.2777 H   0  0  0  0  0  0  0  0  0  0  0  0
  1  2  1  0  0  0  0
  2  3  1  0  0  0  0
  3  4  1  0  0  0  0
  4  5  1  0  0  0  0
  5  6  1  0  0  0  0
  2  7  1  0  0  0  0
  6  7  1  0  0  0  0
  1  8  1  0  0  0  0
  1  9  1  0  0  0  0
  1 10  1  0  0  0  0
  2 11  1  0  0  0  0
  3 12  1  0  0  0  0
  3 13  1  0  0  0  0
  4 14  1  0  0  0  0
  4 15  1  0  0  0  0
  5 16  1  0  0  0  0
  5 17  1  0  0  0  0
  6 18  1  0  0  0  0
  6 19  1  0  0  0  0
  7 20  1  0  0  0  0
  7 21  1  0  0  0  0
M  END
