11
 xtb: 6.7.1 (edcfbbe)
C            2.03038337358444        0.06762524294292       -0.00018581194413
C            0.75856558824698       -0.76729880478691        0.00021295234147
C           -0.48930347456140        0.07625355649047        0.00043005062413
O           -0.53265275843419        1.28265963827998        0.00001757253792
O           -1.60937982446774       -0.69929478727322       -0.00008052531364
H            2.91052184932193       -0.58046145296942       -0.00000904678306
H            2.07261565009704        0.71222371446065       -0.88122568690554
H            2.07270827194904        0.71282451120790        0.88041012736065
H            0.70729733215156       -1.43054024891816       -0.87195917139114
H            0.70750733838736       -1.42992146970018        0.87285520602406
H           -2.36469668832553       -0.09077721280249       -0.00038882428995
