8
 xtb: 6.7.1 (edcfbbe)
C           -2.25110543239745       -0.42247453308027        0.00008641912530
C           -1.19062125610875        0.67739045696574       -0.00024994100251
Br           0.66262861664575       -0.03913351008192        0.00229578376173
H           -2.89099014579568       -0.34298461460647       -0.88246107500245
H           -1.80416273286023       -1.41756350468227       -0.00654647080226
H           -2.88287579779497       -0.35099481895524        0.88909442954567
H           -1.23376011356011        1.30800980961479        0.88602688452034
H           -1.23218046573244        1.30606343640551       -0.88798587130655
