31
 xtb: 6.7.1 (edcfbbe)
C            3.70208813036356       -0.36893122956992       -0.05534825605109
C            2.22729609827548       -0.30914579352941        0.33582757579757
H            2.15477370550278       -0.37416223754318        1.43263006645009
C            1.43575569542947       -1.47849240303128       -0.25520710622254
C           -0.04511024152260       -1.39510314989372        0.11444494242149
C           -0.67790592393741       -0.07452977849439       -0.34821831239923
H           -0.53872045158780       -0.00824257883013       -1.44195649592596
C            0.10618573920155        1.09979033209211        0.25732692135217
H            0.00148838295421        1.07742868277992        1.35038604946495
C            1.58949170646914        1.01412370417625       -0.09837632971826
O           -0.43363724183509        2.37243799755077       -0.12535221245291
C           -2.19765024801577        0.01918059412501       -0.08649549888283
C           -2.98405692839738       -0.91344694939223       -1.01178600303067
C           -2.58383963527992       -0.23352993689347        1.37346251623988
H            4.16223048048156       -1.30514993212070        0.27739357991279
H            3.81264400617704       -0.30941207498142       -1.14441080911261
H            4.26473631267083        0.46094068352731        0.38451374850643
H            1.54410415962885       -1.46271674736671       -1.34984110058767
H            1.86017501277481       -2.42938185109149        0.09017527315797
H           -0.58792727215092       -2.24361153053119       -0.31621455641635
H           -0.14265130324431       -1.48074170632650        1.20499633822905
H            1.69389335373579        1.11442677812573       -1.19128625901553
H            2.11422523947593        1.86424765973534        0.35340964680929
H           -0.30230982840342        2.46732044610715       -1.07652152541699
H           -2.48339294858772        1.04984141116054       -0.32958032783193
H           -2.77746204731230       -1.96709700944576       -0.79347610093700
H           -2.73799996531369       -0.73261972580077       -2.06386116549034
H           -4.06122058544592       -0.76116850162600       -0.88796702043626
H           -2.02920983527198        0.40890474601625        2.06442677795918
H           -2.40829789500815       -1.27613782284253        1.66055207203866
H           -3.64916274920105       -0.02927274925014        1.52108724631256
