11
 xtb: 6.7.1 (edcfbbe)
C            1.84740005767249       -0.42587389236759       -0.48745453734620
C            0.82465912381948       -0.36642241293874        0.65774841711879
C           -0.47896580830390        0.19658882029327        0.15944480257487
O           -0.81502323339948        1.35531815524871        0.21120514423845
O           -1.25049311102495       -0.76503259976624       -0.42171384163077
H            2.01768356520661        0.57058902936905       -0.90386844495636
H            2.80145639078647       -0.81108658668736       -0.11921598239977
H            1.49800322599696       -1.08240988476888       -1.28839180994654
H            0.65915435730750       -1.36793109593632        1.06504317722793
H            1.18273110362389        0.29034543478833        1.45345754527383
H           -2.04261079977836       -0.31588729212559       -0.75645312052873
