 xtb: 6.7.1 (edcfbbe)
          04152519473D

 19 19  0     0  0            999 V2000
   -2.6476   -1.4994   -0.1089 C   0  0  0  0  0  0  0  0  0  0  0  0
   -1.9539   -0.1503    0.0105 C   0  0  0  0  0  0  0  0  0  0  0  0
   -0.4503   -0.1917   -0.0123 C   0  0  0  0  0  0  0  0  0  0  0  0
    0.2980   -1.3501   -0.1308 C   0  0  0  0  0  0  0  0  0  0  0  0
    1.6842   -1.3150   -0.1448 C   0  0  0  0  0  0  0  0  0  0  0  0
    2.3462   -0.1076   -0.0394 C   0  0  0  0  0  0  0  0  0  0  0  0
    1.6192    1.0645    0.0801 C   0  0  0  0  0  0  0  0  0  0  0  0
    0.2337    1.0267    0.0939 C   0  0  0  0  0  0  0  0  0  0  0  0
   -0.5105    2.1663    0.2105 O   0  0  0  0  0  0  0  0  0  0  0  0
   -2.3700   -2.1535    0.7147 H   0  0  0  0  0  0  0  0  0  0  0  0
   -2.3918   -1.9864   -1.0473 H   0  0  0  0  0  0  0  0  0  0  0  0
   -3.7262   -1.3599   -0.0823 H   0  0  0  0  0  0  0  0  0  0  0  0
   -2.2614    0.3383    0.9399 H   0  0  0  0  0  0  0  0  0  0  0  0
   -2.2832    0.5037   -0.8026 H   0  0  0  0  0  0  0  0  0  0  0  0
   -0.2007   -2.3024   -0.2142 H   0  0  0  0  0  0  0  0  0  0  0  0
    2.2433   -2.2338   -0.2383 H   0  0  0  0  0  0  0  0  0  0  0  0
    3.4252   -0.0703   -0.0494 H   0  0  0  0  0  0  0  0  0  0  0  0
    2.1281    2.0167    0.1634 H   0  0  0  0  0  0  0  0  0  0  0  0
    0.0790    2.9271    0.2747 H   0  0  0  0  0  0  0  0  0  0  0  0
  1  2  1  0  0  0  0
  2  3  1  0  0  0  0
  3  4  4  0  0  0  0
  4  5  4  0  0  0  0
  5  6  4  0  0  0  0
  6  7  4  0  0  0  0
  3  8  4  0  0  0  0
  7  8  4  0  0  0  0
  8  9  1  0  0  0  0
  1 10  1  0  0  0  0
  1 11  1  0  0  0  0
  1 12  1  0  0  0  0
  2 13  1  0  0  0  0
  2 14  1  0  0  0  0
  4 15  1  0  0  0  0
  5 16  1  0  0  0  0
  6 17  1  0  0  0  0
  7 18  1  0  0  0  0
  9 19  1  0  0  0  0
M  END
