10
CONF1
C -1.8427197045 -0.8391042064 0.4632408089
S -0.9263384042 0.4620648341 -0.4582154146
S 0.9260878967 0.4622099285 0.4578128381
C 1.8427952087 -0.8390594683 -0.4631729648
H -2.8581478022 -0.8462057088 0.0539847513
H -1.8792699042 -0.5951609433 1.5264354115
H -1.3877130517 -1.8201321354 0.3117365754
H 1.3886545307 -1.8202940265 -0.3104226717
H 2.8585952250 -0.8450201782 -0.0548263980
H 1.8781922254 -0.5959958634 -1.5266094122
10
CONF2
C -1.8201012652 -0.8029084081 0.5428548532
S -0.8447461497 0.6045535171 -0.1276464872
S 1.0426364129 0.2696653462 0.6447941967
C 1.7956223498 -0.8688273445 -0.5876387971
H -1.7745489390 -0.8089664243 1.6333253104
H -1.4621578303 -1.7526854303 0.1399839151
H -2.8534618691 -0.6410916404 0.2195681360
H 2.8285880262 -1.0319564723 -0.2637893934
H 1.7910697233 -0.4105152238 -1.5781884261
H 1.2700717044 -1.8258670403 -0.6070986794
