17
CONF1
C -2.9258439054 0.0000835264 0.0144337968
C -1.4214832639 -0.0000708717 -0.0124362253
C -0.6950428593 -1.1925071438 -0.0093289759
C 0.6935965658 -1.2011596380 0.0029309571
C 1.4121128177 -0.0000299433 0.0108446867
C 0.6935373501 1.2011199786 0.0028251758
C -0.6950498976 1.1924352643 -0.0094678651
N 2.8084954755 0.0000518013 0.0891954083
H -3.3321571364 -0.8879046288 -0.4781346770
H -3.3043788071 0.0060865170 1.0438166699
H -3.3322660142 0.8823101004 -0.4883662790
H -1.2262908837 -2.1407939929 -0.0182964472
H 1.2279543023 -2.1475272373 0.0085672786
H 1.2278925998 2.1474900485 0.0084186071
H -1.2263351470 2.1407090018 -0.0185290094
H 3.2452611218 0.8311137072 -0.2800914440
H 3.2453148142 -0.8312425408 -0.2795042343
