15
 xtb: 6.7.1 (edcfbbe)
C           -2.16965897466650        0.33116373252544        0.42630710267264
C           -1.03259765125579        0.15196843780324       -0.58879251192614
C            0.00220222822400       -0.81477475529241       -0.09932341805995
C            1.28587604256445       -0.57229763769598        0.17775261629448
C            2.01979665797222        0.72545273877023        0.05039237372193
H           -1.78646162850251        0.74128894731297        1.36545746891236
H           -2.64652779618558       -0.62824371333790        0.65219324122842
H           -2.93898764792149        1.00820969000859        0.04241109654108
H           -1.45467220346658       -0.22547123200950       -1.53026817250855
H           -0.58670655109783        1.12406872216040       -0.81849747072041
H           -0.36241278073650       -1.82946590871109        0.06395630789483
H            1.88522022937103       -1.40760634073937        0.53854813934767
H            1.37723186978397        1.54780088092195       -0.26938410274132
H            2.84043484551298        0.63723082502188       -0.67201036916703
H            2.47577826652204        1.00491301188577        1.00756224567081
