26
 xtb: 6.7.1 (edcfbbe)
C           -2.42523985116050        1.20612511462075        0.33845041826987
C           -1.43480376790453        0.15511359913410       -0.16932826805485
C           -2.12103003707938       -1.21218353501305       -0.24640474097050
C           -0.17299027768493        0.11576293538709        0.72152723680374
C            1.19104070138778       -0.01881760403353        0.00798994622654
C            1.22609076090042       -1.23570802839104       -0.92419083966282
C            1.49289271229236        1.25157930966939       -0.79892797423018
C            2.27458734026394       -0.18637889023102        1.08251488871065
H           -2.72761792546934        0.98198733610333        1.36852237279895
H           -1.97984300091964        2.20621050593150        0.33045466883584
H           -3.33049193537009        1.23122254222057       -0.27758444463319
H           -1.14041632542480        0.44404349366505       -1.18687772288966
H           -1.44093643162303       -1.99262187896199       -0.59677285334687
H           -2.48495543788662       -1.50751573966324        0.74466088268551
H           -2.98123868976969       -1.18378898996729       -0.92371851037604
H           -0.12803931299283        1.03322799303243        1.32325101138528
H           -0.27362937939554       -0.70966433847055        1.44009763466031
H            1.01663751382565       -2.15993172061030       -0.37454078264069
H            2.21636132161215       -1.33484147819187       -1.38213847540314
H            0.49530084218509       -1.14596814604429       -1.73391874623019
H            0.74185967796859        1.42961157021092       -1.57524506815926
H            2.46636035721561        1.17059950616521       -1.29436710407006
H            1.51884521278248        2.13075212561178       -0.14575286267373
H            2.26851180580250        0.65773513050157        1.78125501424267
H            3.27004683880151       -0.24133211984795        0.62809628545403
H            2.11491451678305       -1.10417547288445        1.65905348679685
