 xtb: 6.7.1 (edcfbbe)
          04152519163D

  5  4  0     0  0            999 V2000
    0.0000    0.9858    0.0000 C   0  0  0  0  0  0  0  0  0  0  0  0
   -1.6105   -0.0942   -0.0000 Br  0  0  0  0  0  0  0  0  0  0  0  0
    1.6106   -0.0942   -0.0001 Br  0  0  0  0  0  0  0  0  0  0  0  0
    0.0000    1.5953    0.9009 H   0  0  0  0  0  0  0  0  0  0  0  0
    0.0000    1.5954   -0.9008 H   0  0  0  0  0  0  0  0  0  0  0  0
  1  2  1  0  0  0  0
  1  3  1  0  0  0  0
  1  4  1  0  0  0  0
  1  5  1  0  0  0  0
M  END
