15
CONF1
C 1.2003991529 -1.2589121169 0.0352602056
C 0.3986831910 0.0000606216 -0.3184078551
C 1.1995956879 1.2595371175 0.0353273448
C -0.9149605445 -0.0003451472 0.4068730515
C -2.1149270163 -0.0003351598 -0.1711919572
H 0.6520055749 -2.1683373459 -0.2309582985
H 1.4103671484 -1.2903777680 1.1110417011
H 2.1584813904 -1.2675344760 -0.4958953285
H 0.1980707163 0.0000366591 -1.3978236317
H 1.4099533771 1.2908415082 1.1110370843
H 2.1574592322 1.2690399846 -0.4962095556
H 0.6503946456 2.1686168519 -0.2304112270
H -0.8436440475 -0.0005708937 1.4973186372
H -3.0296850613 -0.0005651305 0.4156566690
H -2.2184579857 -0.0001178687 -1.2548721461
