12
CONF1
C -1.8673574861 -0.5348748214 0.2952514451
C -0.9923295267 0.3889853598 -0.5358818807
S 0.7011418583 0.6381827308 0.1413097068
C 1.4026506495 -1.0291700469 -0.1290978569
H -1.9923475667 -0.1509325963 1.3119475487
H -2.8589142809 -0.6173011901 -0.1648387854
H -1.4455921008 -1.5423712661 0.3557029570
H -1.4274264673 1.3926897134 -0.5851246834
H -0.8943835310 0.0224601558 -1.5637479951
H 0.9034603111 -1.7808808579 0.4874353083
H 2.4570692606 -0.9871135832 0.1565669009
H 1.3327506983 -1.3073334412 -1.1848772688
