11
 xtb: 6.7.1 (edcfbbe)
C           -2.81856339219083       -0.59332877110510        0.02246940369703
O           -1.44499532252817       -1.00382315063207        0.21205223292969
C           -0.52597050024757       -0.06878913654372       -0.11879157168274
O           -0.78021110003036        1.02979915948513       -0.53237141415815
C            0.84935317933287       -0.67064462873019        0.11505545711539
Cl           2.16585719319988        0.51230456462574       -0.14731594748398
H           -3.03323944135466        0.29406838192542        0.62275479291560
H           -3.42157281411417       -1.43913334883703        0.35075609830221
H           -3.00393381594082       -0.36972827951168       -1.03110863948768
H            0.99138771336382       -1.50984314966247       -0.57148223702487
H            0.91270277099658       -1.04978516305714        1.13772196270918
