24
 xtb: 6.7.1 (edcfbbe)
C           -2.56648576241149       -0.87762381204084        0.30585798908548
C           -1.15506286924479       -0.41176411932585        0.62751259400354
H           -1.04700988417082       -0.32371189773703        1.72265525270953
C           -0.81790851344026        0.93658611054598       -0.01057822763424
H           -1.02044272947032        0.87794747978346       -1.09148408496219
C            0.65184249464327        1.25885496839426        0.20498798134285
H            0.83279384663473        1.38007396815758        1.28766963003041
C            1.51465438577470        0.11844027755288       -0.30295343484652
H            1.35765009010574        0.00274977479709       -1.39093591396845
C            1.09698337153386       -1.18240541982042        0.38474067971637
H            1.28787754179796       -1.11697762332636        1.46848266247000
O           -0.27670061425920       -1.43618367894207        0.12749423266359
O            1.84596177705923       -2.27398915314057       -0.07258310459767
O            2.86844452655358        0.44759450594834       -0.01047315345460
O            0.92051179279840        2.48237951762509       -0.47749963052562
O           -1.64990823117811        1.90993230065577        0.61007259941484
O           -2.76454263129213       -1.06425843849949       -1.09029289738441
H           -3.27510639084595       -0.11098524694449        0.62928321109968
H           -2.76707240364981       -1.80484272249399        0.86359384034296
H            1.60854839049071       -2.42060261989477       -0.99869514729279
H            3.40992545474030       -0.31918005023766       -0.23540930680469
H            1.85842885646172        2.67696583388151       -0.36174274202392
H           -1.35910587038609        2.77164155193406        0.28677144520890
H           -2.11857036278045       -1.72088811072878       -1.37690138071646
