25
CONF2
C -4.2794509134 -0.1916863895 0.1385171005
C -2.7854645961 -0.1000926256 -0.0005461860
C -1.9553664091 -0.0438100559 1.1200850036
C -0.5742985511 0.0515603378 0.9849941497
C 0.0092617822 0.1083335676 -0.2813710053
C -0.8174005930 0.0800438858 -1.4070119768
C -2.1916108069 -0.0400440780 -1.2662420486
C 1.4758468861 0.3353658520 -0.4860177620
O 1.8588512647 1.1779368129 -1.2934975848
N 2.3518773456 -0.3768988940 0.2963385630
C 3.7704574248 -0.0659319861 0.1800392350
C 2.0546110110 -1.6712210749 0.8946936955
H -4.6888785164 -0.9742725466 -0.5078264536
H -4.5720512668 -0.4094529143 1.1683545839
H -4.7553107870 0.7513884559 -0.1531533303
H -2.3958971101 -0.0690670611 2.1129753644
H 0.0517661235 0.1062294223 1.8707981305
H -0.3646245727 0.1624043588 -2.3895025527
H -2.8205007528 -0.0753570845 -2.1519930819
H 3.8905868787 0.9840174466 -0.0874774860
H 4.2547260877 -0.6778085776 -0.5945663721
H 4.2606930692 -0.2649789446 1.1391518915
H 2.2658100090 -1.6654491529 1.9721072269
H 2.6768916180 -2.4489657121 0.4297660656
H 1.0087092652 -1.9351616412 0.7425318310
25
CONF1
C -4.2739568478 -0.2588773547 0.0101937857
C -2.7806796389 -0.0883413034 -0.0167990419
C -2.1936508770 0.9613740636 -0.7304707721
C -0.8192965226 1.1512594087 -0.7242049572
C 0.0127919191 0.2713383602 -0.0293443966
C -0.5648124380 -0.7770773338 0.6893386941
C -1.9443504849 -0.9477802477 0.6989540633
C 1.4797937637 0.5710235125 0.0155491915
O 1.8665579348 1.7241902561 0.1858089128
N 2.3532884550 -0.4851591132 -0.0792462252
C 3.7738415979 -0.2066209860 0.0849514751
C 2.0471715136 -1.7501219862 -0.7339868318
H -4.7224681812 0.0243451430 -0.9460903598
H -4.5542349821 -1.2921405055 0.2305685724
H -4.7219597871 0.3774034047 0.7826628132
H -2.8269447514 1.6447990611 -1.2897694335
H -0.3713646156 1.9866384677 -1.2521021706
H 0.0664067892 -1.4508895568 1.2611399304
H -2.3798836973 -1.7594268783 1.2754658619
H 3.9014410223 0.6452551630 0.7528238021
H 4.2508340058 0.0332967908 -0.8760806477
H 4.2654000643 -1.0892217871 0.5078754359
H 2.2370169859 -2.5991013985 -0.0638219940
H 2.6806770905 -1.8704014063 -1.6238846593
H 1.0050567794 -1.7777685781 -1.0505157632
