 xtb: 6.7.1 (edcfbbe)
          04152519373D

 16 16  0     0  0            999 V2000
   -1.5349    0.6372   -0.0397 C   0  0  0  0  0  0  0  0  0  0  0  0
   -1.2548   -0.8094   -0.4393 C   0  0  0  0  0  0  0  0  0  0  0  0
   -0.0630   -1.1754    0.4418 C   0  0  0  0  0  0  0  0  0  0  0  0
    0.8149    0.0920    0.4622 C   0  0  0  0  0  0  0  0  0  0  0  0
   -0.1425    1.2563    0.1124 C   0  0  0  0  0  0  0  0  0  0  0  0
    1.9045    0.0073   -0.4265 O   0  0  0  0  0  0  0  0  0  0  0  0
   -2.0586    0.6552    0.9171 H   0  0  0  0  0  0  0  0  0  0  0  0
   -2.1436    1.1661   -0.7720 H   0  0  0  0  0  0  0  0  0  0  0  0
   -2.1103   -1.4631   -0.2772 H   0  0  0  0  0  0  0  0  0  0  0  0
   -0.9806   -0.8617   -1.4953 H   0  0  0  0  0  0  0  0  0  0  0  0
   -0.4058   -1.4012    1.4516 H   0  0  0  0  0  0  0  0  0  0  0  0
    0.5000   -2.0313    0.0711 H   0  0  0  0  0  0  0  0  0  0  0  0
    1.2816    0.2339    1.4399 H   0  0  0  0  0  0  0  0  0  0  0  0
   -0.1236    2.0360    0.8712 H   0  0  0  0  0  0  0  0  0  0  0  0
    0.1837    1.7033   -0.8288 H   0  0  0  0  0  0  0  0  0  0  0  0
    1.5597   -0.1513   -1.3131 H   0  0  0  0  0  0  0  0  0  0  0  0
  1  2  1  0  0  0  0
  2  3  1  0  0  0  0
  3  4  1  0  0  0  0
  1  5  1  0  0  0  0
  4  5  1  0  0  0  0
  4  6  1  0  0  0  0
  1  7  1  0  0  0  0
  1  8  1  0  0  0  0
  2  9  1  0  0  0  0
  2 10  1  0  0  0  0
  3 11  1  0  0  0  0
  3 12  1  0  0  0  0
  4 13  1  0  0  0  0
  5 14  1  0  0  0  0
  5 15  1  0  0  0  0
  6 16  1  0  0  0  0
M  END
