 xtb: 6.7.1 (edcfbbe)
          04162509553D

 15 14  0     0  0            999 V2000
   -1.5839    0.9089    0.2535 C   0  0  0  0  0  0  0  0  0  0  0  0
   -1.3288   -0.4863   -0.3000 C   0  0  0  0  0  0  0  0  0  0  0  0
    0.0808   -0.9984   -0.3852 C   0  0  0  0  0  0  0  0  0  0  0  0
    1.2642   -0.4811   -0.0899 C   0  0  0  0  0  0  0  0  0  0  0  0
    1.6542    0.8537    0.4571 C   0  0  0  0  0  0  0  0  0  0  0  0
   -2.6568    1.0961    0.2708 H   0  0  0  0  0  0  0  0  0  0  0  0
   -1.1232    1.6690   -0.3725 H   0  0  0  0  0  0  0  0  0  0  0  0
   -1.2111    0.9994    1.2705 H   0  0  0  0  0  0  0  0  0  0  0  0
   -1.8891   -1.2073    0.3067 H   0  0  0  0  0  0  0  0  0  0  0  0
   -1.7505   -0.5432   -1.3103 H   0  0  0  0  0  0  0  0  0  0  0  0
    0.0896   -2.0120   -0.7756 H   0  0  0  0  0  0  0  0  0  0  0  0
    2.1247   -1.1202   -0.2614 H   0  0  0  0  0  0  0  0  0  0  0  0
    0.8218    1.5346    0.5687 H   0  0  0  0  0  0  0  0  0  0  0  0
    2.3927    1.3102   -0.2029 H   0  0  0  0  0  0  0  0  0  0  0  0
    2.1289    0.7197    1.4303 H   0  0  0  0  0  0  0  0  0  0  0  0
  1  2  1  0  0  0  0
  2  3  1  0  0  0  0
  3  4  2  0  0  0  0
  4  5  1  0  0  0  0
  1  6  1  0  0  0  0
  1  7  1  0  0  0  0
  1  8  1  0  0  0  0
  2  9  1  0  0  0  0
  2 10  1  0  0  0  0
  3 11  1  0  0  0  0
  4 12  1  0  0  0  0
  5 13  1  0  0  0  0
  5 14  1  0  0  0  0
  5 15  1  0  0  0  0
M  END
