8
 xtb: 6.7.1 (edcfbbe)
C            0.16983820651329        0.64508510042322       -0.50567337358945
H            0.19624199863148        0.72032141426865       -1.59585077898894
C            1.33735825762608       -0.22198965070485       -0.01095674073190
F            1.33881697384137       -0.36478837326519        1.31840787319773
F            2.49508278006693        0.36814237982014       -0.37427533394596
F            1.29049838701044       -1.43672241300534       -0.58320515868917
F            0.28334598973831        1.87939756827487        0.05023952360007
Br          -1.54227213289766       -0.16228203085369       -0.02252387355438
