12
 xtb: 6.7.1 (edcfbbe)
C            2.30415124522269        0.14301426015695        0.00006098451164
C            0.81563957532640        0.25802404187688        0.00000366675070
C            0.04596521771874        1.39014364192435        0.00000162932187
C           -1.35230620082738        1.13224152746078        0.00004249946657
C           -1.64689065614941       -0.20051476817424        0.00003872680477
S           -0.20157327619915       -1.15974529605938        0.00006839962449
H            2.67171676184859       -0.38843942408014        0.88422925310432
H            2.67171398395054       -0.38949964560911       -0.88346540030092
H            2.74617385380961        1.14261326763943       -0.00053918851990
H            0.47620516371465        2.38515880263021       -0.00001414566501
H           -2.10987684089336        1.90640815038369        0.00003974498457
H           -2.61729454949386       -0.67620702021421        0.00004389559656
