 xtb: 6.7.1 (edcfbbe)
          04152519433D

 15 14  0     0  0            999 V2000
    1.6058   -0.9032   -0.0075 C   0  0  0  0  0  0  0  0  0  0  0  0
    0.4321    0.0112    0.3301 C   0  0  0  0  0  0  0  0  0  0  0  0
    0.7170    1.4482   -0.1150 C   0  0  0  0  0  0  0  0  0  0  0  0
   -0.7054   -0.5404   -0.3129 O   0  0  0  0  0  0  0  0  0  0  0  0
   -1.9386   -0.0281    0.1138 C   0  0  0  0  0  0  0  0  0  0  0  0
    1.3790   -1.9217    0.2948 H   0  0  0  0  0  0  0  0  0  0  0  0
    1.7779   -0.8930   -1.0801 H   0  0  0  0  0  0  0  0  0  0  0  0
    2.5039   -0.5693    0.5041 H   0  0  0  0  0  0  0  0  0  0  0  0
    0.2629    0.0023    1.4219 H   0  0  0  0  0  0  0  0  0  0  0  0
   -0.0802    2.1207    0.1924 H   0  0  0  0  0  0  0  0  0  0  0  0
    0.8081    1.4842   -1.1979 H   0  0  0  0  0  0  0  0  0  0  0  0
    1.6462    1.7924    0.3305 H   0  0  0  0  0  0  0  0  0  0  0  0
   -2.0884    1.0111   -0.2010 H   0  0  0  0  0  0  0  0  0  0  0  0
   -2.0363   -0.0831    1.2060 H   0  0  0  0  0  0  0  0  0  0  0  0
   -2.7039   -0.6504   -0.3473 H   0  0  0  0  0  0  0  0  0  0  0  0
  1  2  1  0  0  0  0
  2  3  1  0  0  0  0
  2  4  1  0  0  0  0
  4  5  1  0  0  0  0
  1  6  1  0  0  0  0
  1  7  1  0  0  0  0
  1  8  1  0  0  0  0
  2  9  1  0  0  0  0
  3 10  1  0  0  0  0
  3 11  1  0  0  0  0
  3 12  1  0  0  0  0
  5 13  1  0  0  0  0
  5 14  1  0  0  0  0
  5 15  1  0  0  0  0
M  END
