10
 xtb: 6.7.1 (edcfbbe)
C           -0.71880483773883       -0.60066067741264        0.27968433664048
C            0.68845985725682       -0.62200109069571       -0.29015240810686
O            1.40033160030454        0.57280372651120        0.06730385844456
O           -1.44173119555987        0.53885451758697       -0.16552618926281
H           -0.67149340139686       -0.63224485145500        1.38375100418085
H           -1.27187596757482       -1.48648718563468       -0.05400129237811
H            0.64710821279367       -0.62148534410936       -1.38382888311129
H            1.22629890283835       -1.52359168635237        0.03995457733476
H            1.59132098272126        0.53256858916301        1.01158042401876
H           -0.83569276660156        1.28777466884131       -0.08829007957929
