19
 xtb: 6.7.1 (edcfbbe)
C           -3.32688314722992        0.71887924539171        0.37664554442615
C           -2.48416321605088       -0.39534992540432       -0.23845277735958
C           -0.98545513256563       -0.22090139155223       -0.12466148520718
C           -0.14539859786675       -1.32722738128661       -0.29895460319243
C            1.23511553458863       -1.21738000529706       -0.23192171156436
C            1.81413656614420        0.02554695358361        0.01908430198205
C            1.00236350216711        1.14101689050447        0.20011576908125
C           -0.38314198457672        1.01075881978123        0.12703898761554
O            3.18258991319408        0.08255147624977        0.08065238663380
H           -3.06973750112883        0.87303527844723        1.42970559524474
H           -4.38967015471788        0.46631622322448        0.32083536605772
H           -3.19026255106250        1.66952619923239       -0.14781023882006
H           -2.74877866568113       -0.49956736143989       -1.30004051092404
H           -2.75405068779710       -1.35076304493220        0.22786592191381
H           -0.58602498965845       -2.30222432759383       -0.49168339519094
H            1.87680114783391       -2.08159745955550       -0.36461560898824
H            1.44551276425608        2.11366907741454        0.40097548947802
H           -0.99346219790499        1.89496230455320        0.27590705222861
H            3.44886784169662        0.99058644374845        0.26248415096694
