 xtb: 6.7.1 (edcfbbe)
          04152521333D

 24 24  0     0  0            999 V2000
   -3.0667    0.8110    0.4532 C   0  0  0  0  0  0  0  0  0  0  0  0
   -1.9036    0.6900   -0.3519 O   0  0  0  0  0  0  0  0  0  0  0  0
   -1.0732   -0.3172   -0.0401 C   0  0  0  0  0  0  0  0  0  0  0  0
   -1.2921   -1.0881    0.8564 O   0  0  0  0  0  0  0  0  0  0  0  0
    0.1126   -0.3616   -0.9869 C   0  0  0  0  0  0  0  0  0  0  0  0
    1.1207   -1.4311   -0.5613 C   0  0  0  0  0  0  0  0  0  0  0  0
    1.8390   -1.0391    0.7275 C   0  0  0  0  0  0  0  0  0  0  0  0
    2.5099    0.3228    0.5838 C   0  0  0  0  0  0  0  0  0  0  0  0
    1.4780    1.3821    0.2100 C   0  0  0  0  0  0  0  0  0  0  0  0
    0.7879    1.0103   -1.0987 C   0  0  0  0  0  0  0  0  0  0  0  0
   -3.6733   -0.0942    0.3820 H   0  0  0  0  0  0  0  0  0  0  0  0
   -3.6138    1.6691    0.0715 H   0  0  0  0  0  0  0  0  0  0  0  0
   -2.7912    0.9656    1.4986 H   0  0  0  0  0  0  0  0  0  0  0  0
   -0.3050   -0.6247   -1.9669 H   0  0  0  0  0  0  0  0  0  0  0  0
    0.6008   -2.3789   -0.4141 H   0  0  0  0  0  0  0  0  0  0  0  0
    1.8516   -1.5605   -1.3628 H   0  0  0  0  0  0  0  0  0  0  0  0
    1.1141   -1.0062    1.5416 H   0  0  0  0  0  0  0  0  0  0  0  0
    2.5841   -1.7985    0.9728 H   0  0  0  0  0  0  0  0  0  0  0  0
    3.0016    0.5952    1.5198 H   0  0  0  0  0  0  0  0  0  0  0  0
    3.2753    0.2736   -0.1949 H   0  0  0  0  0  0  0  0  0  0  0  0
    0.7335    1.4587    1.0058 H   0  0  0  0  0  0  0  0  0  0  0  0
    1.9601    2.3566    0.1067 H   0  0  0  0  0  0  0  0  0  0  0  0
    0.0449    1.7636   -1.3634 H   0  0  0  0  0  0  0  0  0  0  0  0
    1.5308    0.9683   -1.8986 H   0  0  0  0  0  0  0  0  0  0  0  0
  1  2  1  0  0  0  0
  2  3  1  0  0  0  0
  3  4  2  0  0  0  0
  3  5  1  0  0  0  0
  5  6  1  0  0  0  0
  6  7  1  0  0  0  0
  7  8  1  0  0  0  0
  8  9  1  0  0  0  0
  5 10  1  0  0  0  0
  9 10  1  0  0  0  0
  1 11  1  0  0  0  0
  1 12  1  0  0  0  0
  1 13  1  0  0  0  0
  5 14  1  0  0  0  0
  6 15  1  0  0  0  0
  6 16  1  0  0  0  0
  7 17  1  0  0  0  0
  7 18  1  0  0  0  0
  8 19  1  0  0  0  0
  8 20  1  0  0  0  0
  9 21  1  0  0  0  0
  9 22  1  0  0  0  0
 10 23  1  0  0  0  0
 10 24  1  0  0  0  0
M  END
