 xtb: 6.7.1 (edcfbbe)
          04162509403D

 12 11  0     0  0            999 V2000
    1.9073    0.7674    0.2126 C   0  0  0  0  0  0  0  0  0  0  0  0
    1.2220   -0.3914   -0.5004 C   0  0  0  0  0  0  0  0  0  0  0  0
   -0.0199   -0.8710    0.2637 C   0  0  0  0  0  0  0  0  0  0  0  0
   -1.0288    0.1562    0.3128 C   0  0  0  0  0  0  0  0  0  0  0  0
   -1.8227    0.9782    0.3394 N   0  0  0  0  0  0  0  0  0  0  0  0
    2.7780    1.0960   -0.3495 H   0  0  0  0  0  0  0  0  0  0  0  0
    1.2245    1.6085    0.3138 H   0  0  0  0  0  0  0  0  0  0  0  0
    2.2340    0.4682    1.2068 H   0  0  0  0  0  0  0  0  0  0  0  0
    0.9276   -0.0813   -1.5055 H   0  0  0  0  0  0  0  0  0  0  0  0
    1.9158   -1.2294   -0.5960 H   0  0  0  0  0  0  0  0  0  0  0  0
    0.2490   -1.1400    1.2896 H   0  0  0  0  0  0  0  0  0  0  0  0
   -0.4520   -1.7498   -0.2236 H   0  0  0  0  0  0  0  0  0  0  0  0
  1  2  1  0  0  0  0
  2  3  1  0  0  0  0
  3  4  1  0  0  0  0
  4  5  3  0  0  0  0
  1  6  1  0  0  0  0
  1  7  1  0  0  0  0
  1  8  1  0  0  0  0
  2  9  1  0  0  0  0
  2 10  1  0  0  0  0
  3 11  1  0  0  0  0
  3 12  1  0  0  0  0
M  END
