11
CONF1
C -1.6760953492 1.1759798006 0.0003903863
C -2.3105757439 -0.0631521367 0.0003036399
C -1.5276347787 -1.2068028140 0.0002347966
N -0.1821780807 -1.1790490528 0.0000580495
C 0.3822805535 0.0112318762 0.0000281592
C -0.2884790270 1.2282377801 0.0002861862
Cl 2.1549631242 0.0391087711 0.0001247368
H -2.2508804318 2.0960000708 0.0004742561
H -3.3914683164 -0.1424022568 0.0003180184
H -1.9830354712 -2.1932292372 0.0000262009
H 0.2480478007 2.1688816167 0.0003616428
