 xtb: 6.7.1 (edcfbbe)
          04152520263D

 10  9  0     0  0            999 V2000
    1.8758    0.1489    0.1809 C   0  0  0  0  0  0  0  0  0  0  0  0
    0.6990   -0.0153   -0.3907 C   0  0  0  0  0  0  0  0  0  0  0  0
   -0.5428   -0.4391    0.3314 C   0  0  0  0  0  0  0  0  0  0  0  0
   -1.6358    0.3036   -0.1702 O   0  0  0  0  0  0  0  0  0  0  0  0
    2.7451    0.4382   -0.3837 H   0  0  0  0  0  0  0  0  0  0  0  0
    2.0224   -0.0088    1.2372 H   0  0  0  0  0  0  0  0  0  0  0  0
    0.5557    0.1548   -1.4479 H   0  0  0  0  0  0  0  0  0  0  0  0
   -0.4263   -0.2846    1.4135 H   0  0  0  0  0  0  0  0  0  0  0  0
   -0.7056   -1.5161    0.1542 H   0  0  0  0  0  0  0  0  0  0  0  0
   -2.4394    0.0271    0.2810 H   0  0  0  0  0  0  0  0  0  0  0  0
  1  2  2  0  0  0  0
  2  3  1  0  0  0  0
  3  4  1  0  0  0  0
  1  5  1  0  0  0  0
  1  6  1  0  0  0  0
  2  7  1  0  0  0  0
  3  8  1  0  0  0  0
  3  9  1  0  0  0  0
  4 10  1  0  0  0  0
M  END
