24
 xtb: 6.7.1 (edcfbbe)
C           -2.43558986371324       -1.09889617349984       -0.30740064362217
C           -1.09865120599614       -0.59416835969355        0.23149208541999
H           -1.14870035718268       -0.57069780808683        1.33335235408916
C           -0.73443542184869        0.79790147556485       -0.29107952523671
H           -0.71893709710417        0.76265389186153       -1.39376995529219
C            0.64596962705452        1.19400381865092        0.20311333419329
H            0.62334706294013        1.26394750085773        1.30432538745236
C            1.65358480639038        0.13207561512005       -0.19714529717572
H            1.71055066212999        0.08631905540680       -1.29966381877960
C            1.19178834125945       -1.23401687176125        0.31668722889783
H            1.18371997455966       -1.24053644220870        1.41910900968299
O           -0.09791824170224       -1.52726311572898       -0.20211959600331
O            2.07152633472864       -2.25224264068263       -0.07129175059309
O            2.90702051167784        0.50362565744698        0.36585455598748
O            0.94592953566428        2.46811947735759       -0.36590149890485
O           -1.72352517654589        1.72324570350806        0.16110725751498
O           -3.54104087930147       -0.46208206471304        0.31125413729080
H           -2.51412955152823       -2.16707978068023       -0.08330667696155
H           -2.45122317635687       -0.97995862556710       -1.40388873773263
H            1.97159211648303       -2.36947417778640       -1.02612850612123
H            3.52353339341655       -0.22167315804509        0.20291887908542
H            1.83398188776334        2.71097419900412       -0.07698551957206
H           -1.41174396636579        2.60667731264936       -0.07417995788840
H           -3.40747885346169        0.49155942185698        0.22450067414820
