8
CONF1
C -0.7627071050 0.0001294587 -0.0000150585
C 0.7626677795 -0.0000925178 -0.0000601790
H -1.1597319913 0.3944215127 0.9411526714
H -1.1597670963 0.6182196715 -0.8119283935
H -1.1599746269 -1.0119839619 -0.1292701091
H 1.1599426075 1.0120150537 0.1292224627
H 1.1596922073 -0.3943610777 -0.9412370945
H 1.1597223277 -0.6182023989 0.8118404476
