12
 xtb: 6.7.1 (edcfbbe)
C           -2.21449539053983       -1.00579016832580       -0.30443972492533
O           -0.84202917466921       -0.74118446149931        0.07597955972135
C           -0.53550872819946        0.55353370131018        0.21877434641113
O           -1.29561065600240        1.47601209267576        0.06850153145405
C            0.91679946139887        0.73900669521577        0.65812625341430
C            1.83723003311638       -0.28017677836967        0.18847332269981
N            2.58183378228278       -1.07546993047025       -0.19336953582390
H           -2.42666775887771       -0.55192590688989       -1.27514252540028
H           -2.89695970914376       -0.59887168012710        0.44523065668549
H           -2.29240574363897       -2.09057602329973       -0.35695687353122
H            0.92313949112053        0.75040091983109        1.75555617206765
H            1.24190730908319        1.72683437464790        0.32200597205698
