 xtb: 6.7.1 (edcfbbe)
          04162509483D

 16 15  0     0  0            999 V2000
    1.2009   -1.2313   -0.6757 C   0  0  0  0  0  0  0  0  0  0  0  0
    0.6713   -0.2837    0.4068 C   0  0  0  0  0  0  0  0  0  0  0  0
    1.5937    0.9225    0.5618 C   0  0  0  0  0  0  0  0  0  0  0  0
   -0.7217    0.1605   -0.0202 C   0  0  0  0  0  0  0  0  0  0  0  0
   -0.9066    1.0846   -0.7692 O   0  0  0  0  0  0  0  0  0  0  0  0
   -1.8481   -0.6639    0.5506 C   0  0  0  0  0  0  0  0  0  0  0  0
    0.5560   -2.1008   -0.7848 H   0  0  0  0  0  0  0  0  0  0  0  0
    1.2477   -0.7132   -1.6307 H   0  0  0  0  0  0  0  0  0  0  0  0
    2.2001   -1.5730   -0.4157 H   0  0  0  0  0  0  0  0  0  0  0  0
    0.6041   -0.8270    1.3542 H   0  0  0  0  0  0  0  0  0  0  0  0
    1.5932    1.5049   -0.3561 H   0  0  0  0  0  0  0  0  0  0  0  0
    2.6098    0.6004    0.7762 H   0  0  0  0  0  0  0  0  0  0  0  0
    1.2516    1.5620    1.3725 H   0  0  0  0  0  0  0  0  0  0  0  0
   -2.7854   -0.4186    0.0585 H   0  0  0  0  0  0  0  0  0  0  0  0
   -1.9368   -0.4451    1.6136 H   0  0  0  0  0  0  0  0  0  0  0  0
   -1.6358   -1.7246    0.4417 H   0  0  0  0  0  0  0  0  0  0  0  0
  1  2  1  0  0  0  0
  2  3  1  0  0  0  0
  2  4  1  0  0  0  0
  4  5  2  0  0  0  0
  4  6  1  0  0  0  0
  1  7  1  0  0  0  0
  1  8  1  0  0  0  0
  1  9  1  0  0  0  0
  2 10  1  0  0  0  0
  3 11  1  0  0  0  0
  3 12  1  0  0  0  0
  3 13  1  0  0  0  0
  6 14  1  0  0  0  0
  6 15  1  0  0  0  0
  6 16  1  0  0  0  0
M  END
