 xtb: 6.7.1 (edcfbbe)
          04152519333D

 15 14  0     0  0            999 V2000
    2.0645    0.0369   -0.1191 C   0  0  0  0  0  0  0  0  0  0  0  0
    0.7572    0.6732    0.3352 C   0  0  0  0  0  0  0  0  0  0  0  0
   -0.4552    0.0210   -0.3327 C   0  0  0  0  0  0  0  0  0  0  0  0
   -0.3108    0.0354   -1.4274 H   0  0  0  0  0  0  0  0  0  0  0  0
   -1.7453    0.7691    0.0062 C   0  0  0  0  0  0  0  0  0  0  0  0
   -0.5132   -1.3212    0.1129 O   0  0  0  0  0  0  0  0  0  0  0  0
    2.2082    0.1802   -1.1881 H   0  0  0  0  0  0  0  0  0  0  0  0
    2.0440   -1.0292    0.0881 H   0  0  0  0  0  0  0  0  0  0  0  0
    2.9063    0.4812    0.4063 H   0  0  0  0  0  0  0  0  0  0  0  0
    0.7579    1.7389    0.1000 H   0  0  0  0  0  0  0  0  0  0  0  0
    0.6512    0.5561    1.4147 H   0  0  0  0  0  0  0  0  0  0  0  0
   -1.9035    0.7636    1.0823 H   0  0  0  0  0  0  0  0  0  0  0  0
   -1.6862    1.7986   -0.3361 H   0  0  0  0  0  0  0  0  0  0  0  0
   -2.6004    0.2944   -0.4734 H   0  0  0  0  0  0  0  0  0  0  0  0
   -1.3109   -1.7298   -0.2385 H   0  0  0  0  0  0  0  0  0  0  0  0
  1  2  1  0  0  0  0
  2  3  1  0  0  0  0
  3  4  1  0  0  0  0
  3  5  1  0  0  0  0
  3  6  1  0  0  0  0
  1  7  1  0  0  0  0
  1  8  1  0  0  0  0
  1  9  1  0  0  0  0
  2 10  1  0  0  0  0
  2 11  1  0  0  0  0
  5 12  1  0  0  0  0
  5 13  1  0  0  0  0
  5 14  1  0  0  0  0
  6 15  1  0  0  0  0
M  END
