31
 xtb: 6.7.1 (edcfbbe)
C            3.74732352784033       -0.19004483085986       -0.05068816587588
C            2.27031254412294       -0.33574605632070        0.30831224277929
H            2.19271062972849       -0.56130089307288        1.38340099317996
C            1.61050104514346       -1.48098906056701       -0.46214770382064
C            0.12038054153884       -1.59479352597294       -0.14458387505886
C           -0.64665022349478       -0.29010639940207       -0.41724388582730
H           -0.52248756864161       -0.04434698812002       -1.48340428707439
C            0.01480466114945        0.83858170362587        0.37379266994110
H           -0.08232387085478        0.61104548607244        1.45034659771514
C            1.50001987203627        0.95924222968850        0.03714146221021
O           -0.67327206688001        2.06410242120163        0.07903483257250
C           -2.16439556181588       -0.47137613011896       -0.15307880166805
C           -2.54296765860732       -0.33994016679743        1.32492819049022
C           -3.03328409286443        0.45239461397812       -1.01207770950024
H            3.86157206473503        0.03577059000375       -1.11736811466993
H            4.21816386107805        0.62027814687634        0.51570693554084
H            4.29826812385339       -1.11324685156424        0.15716610319332
H            1.74046223416213       -1.30013392282955       -1.53942101139133
H            2.11950037038374       -2.42630333372095       -0.23646718862523
H           -0.32734547289443       -2.40014679068264       -0.73829328724216
H           -0.00601405980916       -1.87854569082935        0.91003794201906
H            1.59540282792311        1.22967758881783       -1.02427953686210
H            1.93884032192171        1.78276523865301        0.61962747429164
H           -0.20608166688697        2.77702751427353        0.52905889536599
H           -2.39452583475150       -1.50279514441809       -0.45955226916091
H           -3.59026190489848       -0.62280494231921        1.47265459928197
H           -2.42751297871091        0.69508484765657        1.66324948542670
H           -1.93420020046456       -0.98452463388226        1.96801541848428
H           -4.09436407090721        0.21711426261214       -0.87190303862619
H           -2.80082680866112        0.33211506152108       -2.07565926089221
H           -2.87160155729050        1.49956354892283       -0.74743573940597
