14
CONF1
C -2.2426322076 0.2694588090 0.0000615388
C -1.7781209401 -1.0440666227 0.0000694810
C -0.4105740347 -1.2901308231 0.0000465526
C 0.4932314754 -0.2208038014 -0.0000082004
C 0.0207566089 1.0993832306 -0.0000372270
C -1.3440686112 1.3399052364 0.0000065585
C 1.9276039439 -0.5163796803 -0.0000314924
O 2.8150609011 0.3299717376 -0.0000661647
H -3.3105015879 0.4637410500 0.0000809110
H -2.4811718645 -1.8703075297 0.0001231742
H -0.0323381817 -2.3087530412 0.0000561985
H 0.7299518320 1.9208483914 -0.0000748150
H -1.7172083447 2.3587517283 -0.0000191416
H 2.1842077069 -1.5940767912 -0.0000340807
