14
CONF1
C -2.2459070364 0.2712280445 -0.0000218320
C -1.3439378947 1.3372444635 0.0000324737
C 0.0201859520 1.0916545154 0.0000694679
C 0.4892278307 -0.2267724071 0.0000709495
C -0.4166866941 -1.2906511391 0.0000283749
C -1.7841700163 -1.0424940931 -0.0000310319
C 1.9381444513 -0.5063314722 0.0001092262
O 2.8048149639 0.3422065919 -0.0000084310
H -3.3135561141 0.4674489071 -0.0000558083
H -1.7130326369 2.3577829618 0.0000440394
H 0.7442225821 1.8999491346 0.0001013361
H -0.0426896619 -2.3115985557 0.0000342687
H -2.4894212792 -1.8671009905 -0.0000783275
H 2.1996963246 -1.5903067115 0.0002690591
