22
CONF1
C 3.3519896634 1.4448708018 -0.0003078313
C 2.0233991399 1.8615511557 0.0009777025
C 0.9997961244 0.9293572366 0.0020622717
C 1.2940876139 -0.4325656914 0.0019294034
C 2.6094918574 -0.8690397660 0.0004567530
C 3.6219309816 0.0835936662 -0.0006095423
Cl 5.2922726895 -0.4645918575 -0.0024129625
O 0.3050508098 -1.3995771236 0.0034210635
C -0.9998043667 -0.9293681175 0.0020670804
C -2.0234077595 -1.8615615838 0.0009870433
C -3.3519980272 -1.4448803731 -0.0002845100
C -3.6219395046 -0.0836033169 -0.0005764988
C -2.6094997226 0.8690295447 0.0004855063
C -1.2940956511 0.4325547794 0.0019435994
O -0.3050589035 1.3995660510 0.0034322442
Cl -5.2922806559 0.4645820884 -0.0023605089
H 4.1530431337 2.1739196185 -0.0010900354
H 1.7751603104 2.9174488889 0.0012083281
H 2.8193779268 -1.9323076524 0.0002483161
H -1.7751704641 -2.9174598892 0.0012101279
H -4.1530517454 -2.1739288681 -0.0010640138
H -2.8193840145 1.9322979794 0.0002850217
