 xtb: 6.7.1 (edcfbbe)
          04152519093D

 13 13  0     0  0            999 V2000
   -3.4626    0.4207   -0.0000 C   0  0  0  0  0  0  0  0  0  0  0  0
   -2.6997    1.5748   -0.0000 C   0  0  0  0  0  0  0  0  0  0  0  0
   -1.3170    1.4888   -0.0000 C   0  0  0  0  0  0  0  0  0  0  0  0
   -0.7099    0.2500   -0.0000 C   0  0  0  0  0  0  0  0  0  0  0  0
   -1.4643   -0.9198   -0.0000 C   0  0  0  0  0  0  0  0  0  0  0  0
   -2.8504   -0.8203   -0.0000 C   0  0  0  0  0  0  0  0  0  0  0  0
   -0.8110   -2.1041   -0.0000 O   0  0  0  0  0  0  0  0  0  0  0  0
    1.3914    0.0700    0.0000 I   0  0  0  0  0  0  0  0  0  0  0  0
   -4.5401    0.4816   -0.0000 H   0  0  0  0  0  0  0  0  0  0  0  0
   -3.1749    2.5431   -0.0000 H   0  0  0  0  0  0  0  0  0  0  0  0
   -0.7138    2.3833    0.0000 H   0  0  0  0  0  0  0  0  0  0  0  0
   -3.4449   -1.7242   -0.0000 H   0  0  0  0  0  0  0  0  0  0  0  0
   -1.4344   -2.8396   -0.0000 H   0  0  0  0  0  0  0  0  0  0  0  0
  1  2  4  0  0  0  0
  2  3  4  0  0  0  0
  3  4  4  0  0  0  0
  4  5  4  0  0  0  0
  1  6  4  0  0  0  0
  5  6  4  0  0  0  0
  5  7  1  0  0  0  0
  4  8  1  0  0  0  0
  1  9  1  0  0  0  0
  2 10  1  0  0  0  0
  3 11  1  0  0  0  0
  6 12  1  0  0  0  0
  7 13  1  0  0  0  0
M  END
