31
CONF1
C 3.6886055389 -0.3658909610 -0.0456200654
C 2.2154764162 -0.2938480922 0.3465314181
H 2.1421858595 -0.3274356985 1.4394252278
C 1.4326781566 -1.4740501185 -0.2276931642
C -0.0385063916 -1.3874650313 0.1667287399
C -0.6678820037 -0.0910095203 -0.3442228926
H -0.5389512201 -0.0578728682 -1.4352279741
C 0.1053013551 1.1079266177 0.2355842188
H 0.0062254290 1.1197449202 1.3256159948
C 1.5877854927 1.0108276702 -0.1398941743
O -0.4366805868 2.3434167509 -0.1814589277
C -2.1806435584 0.0245395461 -0.0661542222
C -2.9862640881 -0.8388561747 -1.0359163800
C -2.5641955811 -0.3167128050 1.3721112923
H 4.1352053244 -1.2890141920 0.3168485312
H 3.7964378817 -0.3356746037 -1.1280199049
H 4.2390187231 0.4714153297 0.3771540664
H 1.5231740903 -1.4720248817 -1.3168737251
H 1.8569074167 -2.4112629537 0.1391314272
H -0.5766784450 -2.2442450312 -0.2418774347
H -0.1128563856 -1.4262555881 1.2542964069
H 1.6803234461 1.0713992351 -1.2292406428
H 2.1156220507 1.8665292233 0.2867989810
H -0.3556298306 2.3990022170 -1.1408700769
H -2.4485412215 1.0729870671 -0.2412972773
H -2.7645305455 -1.8939501655 -0.8917449369
H -2.7627392734 -0.5786522205 -2.0685781757
H -4.0514134707 -0.6926569210 -0.8715449688
H -1.9751857516 0.2601201116 2.0799067036
H -2.4225095152 -1.3755292131 1.5746119785
H -3.6132126588 -0.0797566266 1.5362449235
31
CONF3
C 3.6875936976 -0.3703917462 -0.0490174341
C 2.2139121894 -0.3051431111 0.3422576670
H 2.1386377039 -0.3636879522 1.4346276620
C 1.4298017340 -1.4700585682 -0.2596745808
C -0.0412146371 -1.3893183442 0.1356680401
C -0.6677801649 -0.0806343976 -0.3456749896
H -0.5396654486 -0.0103152339 -1.4316090500
C 0.1059330245 1.1003603118 0.2574937083
H 0.0141563935 1.0743973907 1.3565605800
C 1.5891525996 1.0112860537 -0.1154970907
O -0.4626097678 2.3006376607 -0.2330799829
C -2.1805313648 0.0305879286 -0.0677994262
C -2.9808512602 -0.8426018726 -1.0329804000
C -2.5664556194 -0.3054721763 1.3713368127
H 4.1312050590 -1.3034981663 0.2908056844
H 3.7959988764 -0.3132692333 -1.1300692506
H 4.2407927856 0.4542772492 0.3951352869
H 1.5197628788 -1.4405321337 -1.3480140814
H 1.8532227994 -2.4160937301 0.0852060888
H -0.5807111741 -2.2339830826 -0.2943299371
H -0.1176331424 -1.4547490137 1.2223352670
H 1.6776312245 1.1009295843 -1.2010971777
H 2.1263656618 1.8523641240 0.3347418930
H 0.0828661473 3.0388587148 0.0579990611
H -2.4459541771 1.0750063763 -0.2580705467
H -4.0467700241 -0.6913930300 -0.8777029440
H -2.7641087140 -1.8971331108 -0.8769906044
H -2.7478169839 -0.5909268298 -2.0649546492
H -1.9798668007 0.2714098846 2.0813760191
H -2.4242712364 -1.3638582988 1.5769415845
H -3.6160809664 -0.0694345061 1.5333031444
31
CONF5
C 3.6832811329 -0.3588087757 -0.0808558437
C 2.2148456220 -0.3018944180 0.3296766105
H 2.1540501028 -0.3726440356 1.4221424901
C 1.4278481708 -1.4636285882 -0.2747204145
C -0.0438640613 -1.3851668391 0.1192014145
C -0.6703653961 -0.0739586983 -0.3594350204
H -0.5201335036 0.0055548694 -1.4427794041
C 0.1047616604 1.0954827751 0.2802078354
H 0.0256707037 1.0240303756 1.3776782497
C 1.5817518036 1.0160893836 -0.1070759324
O -0.3538513757 2.3634384351 -0.1451131621
C -2.1924509911 0.0062006683 -0.1167916145
C -2.9475060085 -0.9860438642 -1.0023329275
C -2.5956077811 -0.1970575263 1.3431693031
H 4.2374434146 0.4636647117 0.3651730978
H 4.1347752742 -1.2940533459 0.2430003805
H 3.7776277752 -0.2885501556 -1.1623122440
H 1.5166783474 -1.4304646954 -1.3630346569
H 1.8489132356 -2.4123954467 0.0658313996
H -0.5775575136 -2.2318443472 -0.3138796348
H -0.1230392558 -1.4531153135 1.2059302154
H 1.6564424526 1.1272153612 -1.1902663111
H 2.1022432571 1.8604502236 0.3476509709
H -1.2602837958 2.4856929549 0.1548961230
H -2.5156595693 1.0091973679 -0.4244790314
H -2.6626952691 -0.8664794893 -2.0451245744
H -4.0193601668 -0.8187413501 -0.9196370669
H -2.7446821769 -2.0112089067 -0.7033623460
H -2.0639255436 0.4833312476 2.0039908998
H -2.3927650710 -1.2164919109 1.6608534726
H -3.6622532176 -0.0151569067 1.4596280815
31
CONF2
C 3.7235027414 -0.1805890189 -0.0510024515
C 2.2476499545 -0.3276842097 0.3082747857
H 2.1678401595 -0.5452583555 1.3793289277
C 1.6012341280 -1.4724090540 -0.4695245881
C 0.1213665730 -1.5967373531 -0.1225556510
C -0.6435540518 -0.3025968177 -0.4209570097
H -0.5129856256 -0.0752105055 -1.4878331901
C -0.0005084011 0.8433983078 0.3803210019
H -0.0895621253 0.6375746219 1.4510775912
C 1.4850803688 0.9627973302 0.0187781915
O -0.6497690120 2.0842557366 0.1993461012
C -2.1576149587 -0.4930578597 -0.1765967086
C -2.5426686084 -0.4328281133 1.2997396712
C -2.9954737738 0.5164500670 -0.9620634438
H 4.2630582276 -1.0990155615 0.1689218928
H 3.8374301752 0.0376710115 -1.1109665678
H 4.1769867361 0.6288575863 0.5163770344
H 1.7109251795 -1.2866246285 -1.5409828905
H 2.1116154203 -2.4105534203 -0.2412082475
H -0.3181964835 -2.4160922143 -0.6959257627
H 0.0216369165 -1.8412130104 0.9367906820
H 1.5744707802 1.2048679306 -1.0452942259
H 1.9151683356 1.7911213267 0.5862734490
H -0.5626632090 2.3335361756 -0.7280314688
H -2.4079386991 -1.4935304316 -0.5526616218
H -1.9479294421 -1.1238596248 1.8919168911
H -3.5903091294 -0.7018227447 1.4171737091
H -2.4050115912 0.5736955087 1.6849851423
H -4.0524793551 0.2781163896 -0.8634284577
H -2.7406992401 0.4943917981 -2.0202991917
H -2.8353360832 1.5204969221 -0.5798600235
31
CONF6
C 3.7232335100 -0.1772563058 -0.0636396955
C 2.2500085309 -0.3283461329 0.3045665912
H 2.1774007946 -0.5480596315 1.3763946743
C 1.6011207075 -1.4732721535 -0.4701904497
C 0.1232392020 -1.5998731195 -0.1162749885
C -0.6443720041 -0.3064306970 -0.4080747981
H -0.5187653547 -0.0638413893 -1.4687416185
C 0.0007354281 0.8335381350 0.3928846357
H -0.0679165119 0.6012351368 1.4684987555
C 1.4827036131 0.9612028087 0.0224780919
O -0.6813709855 2.0457047775 0.1299463294
C -2.1572780214 -0.4953792678 -0.1593070938
C -2.5526907167 -0.3554429171 1.3087883135
C -2.9817185020 0.4675241996 -1.0119908248
H 3.8285098805 0.0470022656 -1.1230381736
H 4.1813027881 0.6291958429 0.5048339778
H 4.2649585074 -1.0964752043 0.1473347045
H 1.7033725230 -1.2844936659 -1.5414000992
H 2.1153877917 -2.4103375787 -0.2456056859
H -0.3176189382 -2.4164558180 -0.6916941830
H 0.0260104389 -1.8493498990 0.9427841807
H 1.5583043453 1.2102505279 -1.0388629428
H 1.9243169245 1.7856995602 0.5919226638
H -0.1886289510 2.7661683293 0.5373888540
H -2.4017780435 -1.5171852512 -0.4767997498
H -3.5945747403 -0.6410379665 1.4380217224
H -2.4418174118 0.6757980777 1.6321877098
H -1.9457226088 -0.9959441469 1.9446986350
H -4.0436559797 0.3214101451 -0.8255837301
H -2.7934592039 0.2992777486 -2.0702190107
H -2.7190728419 1.4927858142 -0.7724573471
31
CONF9
C 3.7256175255 -0.1637604656 -0.0828707021
C 2.2571733730 -0.3087871875 0.3049640244
H 2.1971820756 -0.5039674676 1.3822172893
C 1.6031358943 -1.4730402819 -0.4362367464
C 0.1280099905 -1.5919960479 -0.0688058259
C -0.6442853134 -0.3073856967 -0.3899914126
H -0.5212274942 -0.0934218521 -1.4575786630
C 0.0096695011 0.8541348087 0.3819724909
H -0.0535753495 0.6468642219 1.4623883304
C 1.4859516619 0.9712461000 -0.0009426837
O -0.5713113609 2.1126506152 0.1053159246
C -2.1569696133 -0.5095582608 -0.1330743918
C -2.5699510195 -0.3140430788 1.3263955829
C -3.0172064766 0.3516217904 -1.0610561243
H 4.2731154604 -1.0757554631 0.1450606809
H 3.8184836861 0.0351164979 -1.1483295361
H 4.1852445231 0.6586246691 0.4601927775
H 1.6967828778 -1.3105804783 -1.5124737086
H 2.1179526461 -2.4052724838 -0.1930913993
H -0.3143688733 -2.4268494899 -0.6172286832
H 0.0390797328 -1.8111785040 0.9980281457
H 1.5467790740 1.2001730947 -1.0663837287
H 1.9127594183 1.8156636527 0.5426487933
H -1.4750752742 2.1136774445 0.4360413253
H -2.3745051982 -1.5551289511 -0.3857907650
H -1.9457605523 -0.9094994204 1.9883038226
H -3.6017098027 -0.6335822522 1.4600865052
H -2.5053196440 0.7273419074 1.6355813512
H -2.8196590483 0.0962559861 -2.0999347932
H -2.8198431270 1.4127768564 -0.9358475535
H -4.0728148369 0.1741987617 -0.8631986897
31
CONF4
C 3.7410749958 -0.2700897273 -0.0977225517
C 2.2900332438 -0.1545696205 0.3596426682
H 2.2766096963 0.1107444720 1.4226390636
C 1.5403505639 -1.4694991322 0.1738659286
C 0.0899143522 -1.3415561689 0.6285895099
C -0.6789918605 -0.2509139533 -0.1296383493
H -0.7018023199 -0.5178038072 -1.1942889066
C 0.0930441263 1.0783712989 0.0208101835
H 0.0621325901 1.3853826371 1.0724402344
C 1.5532324804 0.9262030236 -0.4227104178
O -0.4883618976 2.1591216917 -0.6784706167
C -2.1373257303 -0.1325969959 0.3740745874
C -3.0071843156 0.6793737651 -0.5876964229
C -2.8031775772 -1.4958166066 0.5803764264
H 4.2596045974 -1.0392886825 0.4701405639
H 3.7881835962 -0.5331773949 -1.1525803794
H 4.2635128984 0.6731652881 0.0441458458
H 1.5692473252 -1.7540287216 -0.8810564461
H 2.0287207942 -2.2623263160 0.7447341794
H -0.3981187072 -2.3038455468 0.4788148465
H 0.0667880329 -1.1110476110 1.6964575151
H 1.5727089074 0.6748395071 -1.4883639093
H 2.0493843357 1.8915714246 -0.2995781598
H -0.4428830704 1.9626897440 -1.6216633723
H -2.1160971651 0.3865066397 1.3387722229
H -4.0288543335 0.7235541663 -0.2161912673
H -3.0238450228 0.2110512999 -1.5706287793
H -2.6382756229 1.6947027018 -0.6844574125
H -2.3648418997 -2.0416966525 1.4107051724
H -2.7259449435 -2.1007028815 -0.3209907633
H -3.8590004746 -1.3531776117 0.8006853721
31
CONF8
C 3.7309585950 -0.3011156023 -0.1494815118
C 2.2913853332 -0.1725977992 0.3398933958
H 2.3044524318 0.0747000939 1.4080096486
C 1.5217859489 -1.4764733327 0.1516895312
C 0.0792899533 -1.3368440830 0.6289084638
C -0.6713937054 -0.2333255840 -0.1248310393
H -0.6650591909 -0.4746103069 -1.1924880819
C 0.1061225018 1.0813215374 0.0642717795
H 0.1051572842 1.3273375472 1.1415648714
C 1.5572344668 0.9368125542 -0.4064079889
O -0.5291114523 2.1257976746 -0.6489806827
C -2.1438000314 -0.0787860941 0.3261658684
C -2.9874815239 0.5184315813 -0.8005660896
C -2.7947201216 -1.3897865387 0.7701145166
H 4.2728881942 0.6301313129 0.0003520972
H 4.2482716108 -1.0900998594 0.3916652007
H 3.7511094576 -0.5429119657 -1.2100507995
H 1.5299584846 -1.7479549753 -0.9065440912
H 2.0122165820 -2.2798415395 0.7060245313
H -0.4255157315 -2.2905855189 0.4813143953
H 0.0736325565 -1.1101862893 1.6979971011
H 1.5536464047 0.7200966242 -1.4774453603
H 2.0762534842 1.8898068900 -0.2599270981
H 0.0207249955 2.9142929401 -0.5848320920
H -2.1636963250 0.6112993636 1.1768377694
H -3.0554555865 -0.1845567692 -1.6287167062
H -2.5434459224 1.4393398891 -1.1607934789
H -3.9946205469 0.7297568131 -0.4472564713
H -2.3332206990 -1.7902268310 1.6684338729
H -2.7375626557 -2.1354522785 -0.0200143142
H -3.8458816930 -1.2107746526 0.9871966201
31
CONF10
C 3.7188736516 -0.3075257274 -0.2052213388
C 2.2933502639 -0.1677437752 0.3202534407
H 2.3364542900 0.0829023323 1.3867323866
C 1.5156420233 -1.4721637111 0.1597278794
C 0.0780836648 -1.3272871156 0.6526397666
C -0.6631137365 -0.2292273361 -0.1161505412
H -0.6227885876 -0.4772862842 -1.1819594453
C 0.1155161206 1.0870429891 0.0931032040
H 0.1398528061 1.2993350706 1.1766319922
C 1.5511462655 0.9468114823 -0.4103347194
O -0.4455770929 2.1936947827 -0.5839512804
C -2.1511670681 -0.0618065308 0.2800780798
C -2.9758733681 0.3675045172 -0.9379614551
C -2.7931947886 -1.3177988621 0.8706742916
H 4.2673580073 0.6222802939 -0.0744383801
H 4.2466059336 -1.0965022194 0.3261976525
H 3.7100867673 -0.5538024408 -1.2647839958
H 1.5089499096 -1.7570266690 -0.8949962077
H 2.0120935615 -2.2698537564 0.7170621090
H -0.4307421992 -2.2822569178 0.5241246662
H 0.0844829958 -1.0853250631 1.7183580426
H 1.5213312046 0.7403625283 -1.4815286034
H 2.0590620012 1.9025407881 -0.2718192775
H -1.3011371649 2.3962594962 -0.1921029690
H -2.2142672623 0.7211127000 1.0481489702
H -3.9754656955 0.6739942110 -0.6350121920
H -3.0729242602 -0.4691929659 -1.6273519050
H -2.5084345541 1.1889679884 -1.4738419765
H -3.8448235301 -1.1216627915 1.0713701608
H -2.3223605095 -1.6094782073 1.8050699066
H -2.7340938025 -2.1481177066 0.1708420433
31
CONF13
C 3.7482443472 -0.2020492622 -0.0522772359
C 2.2865917390 -0.1710384540 0.3833095533
H 2.2462722900 -0.0156425333 1.4677520317
C 1.5747451528 -1.4777334344 0.0508628571
C 0.1275922528 -1.4079967581 0.5181820417
C -0.6772654879 -0.2813651246 -0.1478617275
H -0.7080200884 -0.4499374290 -1.2299647914
C 0.0570670131 1.0600716802 0.0669716365
H -0.0350035318 1.3508868069 1.1277246140
C 1.5406979788 0.9611702471 -0.3081958585
O -0.4213285018 2.0966097920 -0.7672708790
C -2.1245710393 -0.3552815951 0.4064172788
C -2.9599736256 0.9236983623 0.3147925437
C -2.8961417399 -1.4678992185 -0.3082634069
H 4.2779775980 -1.0109437665 0.4463255676
H 3.8203758276 -0.3552346785 -1.1268358386
H 4.2410395158 0.7356054601 0.1937448568
H 1.6101518746 -1.6471485260 -1.0273910939
H 2.0755471633 -2.3164511507 0.5398146517
H -0.3579184434 -2.3652003286 0.3245483437
H 0.1192855138 -1.2470037376 1.5999820143
H 1.5899332066 0.8243860809 -1.3904106524
H 2.0023417080 1.9234819014 -0.0809211636
H -1.3497002112 2.2608259842 -0.5818726609
H -2.0533534673 -0.6126559641 1.4701102952
H -3.9542257972 0.7231865492 0.7122765842
H -3.0813580839 1.2411227510 -0.7197202870
H -2.5355731062 1.7287150951 0.9117439075
H -3.8789441144 -1.5941985291 0.1409622404
H -2.3770332369 -2.4200915685 -0.2505003390
H -3.0311801846 -1.2152693979 -1.3581469297
31
CONF7
C 3.7196422108 -0.3295202084 -0.1504958252
C 2.2778959382 -0.2040112833 0.3339051680
H 2.2860641551 -0.0261563366 1.4151916863
C 1.4893971487 -1.4834057615 0.0589995040
C 0.0449799201 -1.3505877612 0.5349174295
C -0.6595998065 -0.1902404780 -0.1716180877
H -0.5888484668 -0.3772293335 -1.2508357759
C 0.1231167200 1.1044020270 0.1209293600
H 0.1002814903 1.3007976770 1.1989463033
C 1.5763515158 0.9710351910 -0.3433531865
O -0.4871250692 2.2397029775 -0.4555225356
C -2.1593973112 -0.0009336984 0.1832587753
C -3.0067100518 0.0061411129 -1.0903442125
C -2.7308482458 -1.0315491047 1.1553259666
H 3.7466832922 -0.5086773634 -1.2235177075
H 4.2745122519 0.5821102446 0.0589312292
H 4.2187710896 -1.1578538807 0.3471958325
H 1.5045360903 -1.6923651311 -1.0137262543
H 1.9643763019 -2.3252585132 0.5675128711
H -0.4829123531 -2.2832216852 0.3345162453
H 0.0432402161 -1.1829344750 1.6131088100
H 1.5898462123 0.8246107577 -1.4282679614
H 2.1026979871 1.9030534389 -0.1262624489
H -0.4788640379 2.1309122521 -1.4134011313
H -2.2594736269 0.9840128943 0.6515908268
H -4.0529488256 0.1805274228 -0.8487024499
H -2.9304537880 -0.9505580957 -1.6047601096
H -2.6829623454 0.7934684893 -1.7672639836
H -2.1799311869 -1.0473648496 2.0911421599
H -2.7194189512 -2.0296044101 0.7238915034
H -3.7644034984 -0.7758431404 1.3798812897
31
CONF12
C 3.7479862702 -0.2261127022 -0.0658573516
C 2.2884341339 -0.1687945882 0.3754675486
H 2.2538295152 0.0314317156 1.4527396678
C 1.5675644296 -1.4832046420 0.0988294496
C 0.1190280458 -1.3964594897 0.5620997208
C -0.6785128601 -0.2826230664 -0.1308695664
H -0.7256051634 -0.4778171917 -1.2068168748
C 0.0644613796 1.0536835655 0.0448484444
H -0.0033611831 1.3600046579 1.1036855845
C 1.5422085446 0.9404768936 -0.3554664054
O -0.5413917618 2.0343266222 -0.7780266229
C -2.1210278656 -0.2768987553 0.4281282439
C -2.9318696586 0.9620423401 0.0538154097
C -2.8887576305 -1.5088444475 -0.0581854127
H 3.8139013165 -0.4224401266 -1.1339639405
H 4.2504407379 0.7161907277 0.1414525565
H 4.2740240830 -1.0188239712 0.4611864070
H 1.6013095849 -1.6963030112 -0.9718946854
H 2.0679909296 -2.3025545546 0.6198083601
H -0.3640167685 -2.3557794849 0.3795941693
H 0.1039423696 -1.2165332786 1.6405858270
H 1.5832579891 0.7524893338 -1.4317528038
H 2.0289128882 1.9031610650 -0.1664585456
H -0.0003319841 2.8308335990 -0.7511346706
H -2.0543878101 -0.3196865552 1.5223716620
H -3.9590446250 0.8427990287 0.3944279643
H -2.9341111717 1.1033354532 -1.0229046870
H -2.5246433223 1.8575126219 0.5104548577
H -3.9033654098 -1.4918558441 0.3338807059
H -2.4253075387 -2.4364820949 0.2652910225
H -2.9445702392 -1.5099956038 -1.1446628360
