24
 xtb: 6.7.1 (edcfbbe)
C           -2.19913443744830       -0.92757034824215       -0.17026081469109
C           -1.16099697375623       -0.32370392843380        0.77583741008317
H           -1.66325954357433       -0.31210954381347        1.75685695524833
C           -0.76150285726324        1.13213900088967        0.47311936761107
H           -1.61931189147957        1.64989721151362        0.01457150629416
C            0.44821753655863        1.26583982136163       -0.46287739555313
H            0.80009731991166        2.30256809894442       -0.39860053925742
C            1.59213156086830        0.34531097895369       -0.00181143264144
H            2.37314318615489        0.36176249709678       -0.77308333437174
C            1.09435272311044       -1.09810587792396        0.14484360846243
H            1.84499390182595       -1.69971812299732        0.66626353386664
O           -0.04116948652894       -1.19844889449243        0.98639118257283
O            0.86392157694608       -1.69978753224195       -1.13658229418526
O            2.20094717354951        0.78612799146226        1.19743884789993
O            0.10875347507121        1.00100385353648       -1.82268712907103
O           -0.36933562495101        1.81134561660915        1.68155287047509
O           -1.79694974720398       -1.00620353248206       -1.53513033529128
H           -3.10103392023065       -0.30453933037492       -0.14350692068185
H           -2.46043846515095       -1.92493904752729        0.20940605210271
H            0.99071259929354       -1.00858845358641       -1.80488265922910
H            1.49249103048862        1.06134891182905        1.79816479899603
H           -0.69786958916861        0.44667861531106       -1.84983516000074
H           -1.06137026951822        1.69091255249064        2.34191220813647
H           -1.03078002747551       -1.61085628391353       -1.54727257442517
