 xtb: 6.7.1 (edcfbbe)
          04162509493D

 31 31  0     0  0            999 V2000
    3.7309   -0.3018   -0.1492 C   0  0  0  0  0  0  0  0  0  0  0  0
    2.2911   -0.1738    0.3397 C   0  0  0  0  0  0  0  0  0  0  0  0
    2.3037    0.0711    1.4083 H   0  0  0  0  0  0  0  0  0  0  0  0
    1.5211   -1.4770    0.1483 C   0  0  0  0  0  0  0  0  0  0  0  0
    0.0789   -1.3380    0.6263 C   0  0  0  0  0  0  0  0  0  0  0  0
   -0.6713   -0.2328   -0.1253 C   0  0  0  0  0  0  0  0  0  0  0  0
   -0.6647   -0.4722   -1.1934 H   0  0  0  0  0  0  0  0  0  0  0  0
    0.1065    1.0813    0.0662 C   0  0  0  0  0  0  0  0  0  0  0  0
    0.1054    1.3255    1.1439 H   0  0  0  0  0  0  0  0  0  0  0  0
    1.5577    0.9375   -0.4045 C   0  0  0  0  0  0  0  0  0  0  0  0
   -0.5291    2.1267   -0.6454 O   0  0  0  0  0  0  0  0  0  0  0  0
   -2.1438   -0.0774    0.3252 C   0  0  0  0  0  0  0  0  0  0  0  0
   -2.9872    0.5156   -0.8039 C   0  0  0  0  0  0  0  0  0  0  0  0
   -2.7945   -1.3868    0.7743 C   0  0  0  0  0  0  0  0  0  0  0  0
    4.2728    0.6292    0.0023 H   0  0  0  0  0  0  0  0  0  0  0  0
    4.2479   -1.0916    0.3911 H   0  0  0  0  0  0  0  0  0  0  0  0
    3.7516   -0.5420   -1.2101 H   0  0  0  0  0  0  0  0  0  0  0  0
    1.5289   -1.7458   -0.9106 H   0  0  0  0  0  0  0  0  0  0  0  0
    2.0115   -2.2820    0.7004 H   0  0  0  0  0  0  0  0  0  0  0  0
   -0.4265   -2.2912    0.4771 H   0  0  0  0  0  0  0  0  0  0  0  0
    0.0737   -1.1133    1.6958 H   0  0  0  0  0  0  0  0  0  0  0  0
    1.5544    0.7232   -1.4760 H   0  0  0  0  0  0  0  0  0  0  0  0
    2.0769    1.8900   -0.2557 H   0  0  0  0  0  0  0  0  0  0  0  0
    0.0202    2.9154   -0.5796 H   0  0  0  0  0  0  0  0  0  0  0  0
   -2.1641    0.6159    1.1732 H   0  0  0  0  0  0  0  0  0  0  0  0
   -3.0538   -0.1899   -1.6301 H   0  0  0  0  0  0  0  0  0  0  0  0
   -2.5435    1.4359   -1.1663 H   0  0  0  0  0  0  0  0  0  0  0  0
   -3.9948    0.7271   -0.4522 H   0  0  0  0  0  0  0  0  0  0  0  0
   -2.3312   -1.7848    1.6728 H   0  0  0  0  0  0  0  0  0  0  0  0
   -2.7395   -2.1348   -0.0137 H   0  0  0  0  0  0  0  0  0  0  0  0
   -3.8451   -1.2064    0.9932 H   0  0  0  0  0  0  0  0  0  0  0  0
  1  2  1  0  0  0  0
  2  3  1  0  0  0  0
  2  4  1  0  0  0  0
  4  5  1  0  0  0  0
  5  6  1  0  0  0  0
  6  7  1  0  0  0  0
  6  8  1  0  0  0  0
  8  9  1  0  0  0  0
  2 10  1  0  0  0  0
  8 10  1  0  0  0  0
  8 11  1  0  0  0  0
  6 12  1  0  0  0  0
 12 13  1  0  0  0  0
 12 14  1  0  0  0  0
  1 15  1  0  0  0  0
  1 16  1  0  0  0  0
  1 17  1  0  0  0  0
  4 18  1  0  0  0  0
  4 19  1  0  0  0  0
  5 20  1  0  0  0  0
  5 21  1  0  0  0  0
 10 22  1  0  0  0  0
 10 23  1  0  0  0  0
 11 24  1  0  0  0  0
 12 25  1  0  0  0  0
 13 26  1  0  0  0  0
 13 27  1  0  0  0  0
 13 28  1  0  0  0  0
 14 29  1  0  0  0  0
 14 30  1  0  0  0  0
 14 31  1  0  0  0  0
M  END
