16
CONF1
C -2.7704114363 0.4135561477 0.0003066231
O -1.7921411623 -0.6212878916 -0.0000286249
C -0.4792814019 -0.2463709663 -0.0000213104
C -0.0348362488 1.0770862631 -0.0000892101
C 1.3357047185 1.3366257687 -0.0000352456
C 2.2604937123 0.3011014621 0.0000759698
C 1.8042075087 -1.0174654113 0.0001013324
C 0.4466330320 -1.2948530600 0.0000498510
H -2.6873029656 1.0417025561 -0.8962194605
H -2.6866870844 1.0416748152 0.8967900034
H -3.7375418400 -0.0907535447 0.0006272868
H -0.7327974157 1.9048039483 -0.0001941667
H 1.6750973021 2.3678559296 -0.0000750966
H 3.3237131959 0.5143204881 0.0001379085
H 2.5144309478 -1.8384144847 0.0001829005
H 0.0769430751 -2.3144046836 0.0000843622
16
CONF3
C -2.6506498300 -0.1574222391 -0.6453234232
O -1.8319842014 -0.2306753053 0.5274032659
C -0.4858382091 -0.0756531020 0.2595459993
C 0.0840768472 1.1941113478 0.3035414434
C 1.4496822237 1.3406341002 0.0791878084
C 2.2405608009 0.2269870007 -0.1912871981
C 1.6619558690 -1.0389117059 -0.2339007172
C 0.2972714050 -1.1948900050 -0.0105822685
H -2.5470015632 0.8198974853 -1.1360505729
H -3.6821472932 -0.2941453210 -0.3146093070
H -2.3844766060 -0.9478998627 -1.3600871023
H -0.5463957523 2.0484765620 0.5278137254
H 1.8980918742 2.3282821795 0.1217307453
H 3.3054654428 0.3446449950 -0.3620195275
H 2.2765192242 -1.9105277475 -0.4361463080
H -0.1690618545 -2.1746608370 -0.0275605264
16
CONF2
C -2.7408912179 -0.8368528845 0.0164066526
O -1.8609375818 0.2863310792 -0.0129852951
C -0.5043258882 0.1310329050 -0.0056535895
C 0.2151341553 1.3323832293 -0.0065400352
C 1.6005518087 1.3165979324 -0.0020522561
C 2.2971752603 0.1085560846 0.0041660346
C 1.5795629654 -1.0798465028 0.0043580998
C 0.1849249273 -1.0833141389 -0.0011903762
H -3.3722302066 -0.7510181923 0.9063924547
H -2.2220007297 -1.7952855674 0.0449558076
H -3.3696392567 -0.8013964387 -0.8788438076
H -0.3384723554 2.2649503293 -0.0108594357
H 2.1419671558 2.2575035930 -0.0028229394
H 3.3813744531 0.0969763111 0.0083248406
H 2.1037352309 -2.0305696048 0.0081292363
H -0.3304497183 -2.0348320761 -0.0037145888
