23
 xtb: 6.7.1 (edcfbbe)
C           -2.39914922447599        0.67231397690322       -0.41727966248888
C           -1.77084493650721       -0.34891258318579        0.53161608229291
C           -0.43645741255341       -0.97017463562051        0.09633010999899
C            0.82002789722345       -0.07014867499682       -0.01493407212237
C            0.83343400464103        0.73798298305533       -1.32161516850345
C            0.91973108676299        0.88226596534525        1.18214076913071
C            2.04910936088743       -0.99286691434658       -0.02076105221270
H           -1.85929560788115        1.62270591172945       -0.41977064215818
H           -2.41952811832211        0.29691720197476       -1.44631477133451
H           -3.43019680604649        0.88828374761349       -0.11931808772305
H           -1.66162511518683        0.09721672402219        1.52768510332174
H           -2.47735761416596       -1.17909912104816        0.65810489890651
H           -0.57677124058098       -1.48059993857590       -0.86730056520231
H           -0.20527148816290       -1.76057265606398        0.82359052253769
H            0.77636156011524        0.07234670376623       -2.19001221563940
H            0.00130329254817        1.44167684395250       -1.38209661117812
H            1.76249478729337        1.31371582819901       -1.40200321287749
H            1.86708730909509        1.43163325081314        1.15553015352271
H            0.87629425231720        0.33154409985829        2.12881408238820
H            0.10898327494981        1.61776621495494        1.18046461039905
H            1.98500346700883       -1.72336229843074       -0.83536585933636
H            2.97004991136442       -0.41557207269002       -0.15788813070199
H            2.13231804664870       -1.54492566322763        0.92180237351505
