19
CONF4
C -2.4207767223 -0.3115232137 -1.2380268364
C -1.7224741674 0.0415640457 0.0466465265
C -2.4196531088 0.3214979490 1.1579019662
C -0.2399471690 0.0500075453 0.0371685452
C 0.4790016782 -0.7683510551 -0.8477064572
C 1.8710158114 -0.7738825137 -0.8472041003
C 2.5776141395 0.0500713209 0.0244303602
C 1.8773113866 0.8834575853 0.8958631403
C 0.4878378539 0.8855760050 0.9001875331
H -2.2581705925 -1.3630307595 -1.5026688147
H -3.4976699573 -0.1515266564 -1.1478675999
H -2.0406128647 0.2890118113 -2.0724481885
H -1.9342476918 0.5330361886 2.1057940511
H -3.5056444817 0.3273527025 1.1444773765
H -0.0500491858 -1.4209582073 -1.5339411227
H 2.4044277492 -1.4244097206 -1.5337622505
H 3.6629462369 0.0517751190 0.0185666975
H 2.4168704933 1.5453015554 1.5665037205
H -0.0422445469 1.5605776412 1.5646386601
