19
CONF1
C -2.4653572753 -1.1289457204 0.4504687329
C -1.7240549544 0.0954266241 -0.0155276960
C -2.3832803029 1.1823588492 -0.4366001188
C -0.2446213802 0.0429072279 -0.0051156080
C 0.5174809752 1.1979071051 0.2233746492
C 1.9049924481 1.1545774624 0.2141410641
C 2.5690466640 -0.0477107425 -0.0161999357
C 1.8285594380 -1.2060036108 -0.2264295717
C 0.4388054141 -1.1630308163 -0.2125353004
H -2.0960127808 -1.4655842297 1.4243997088
H -3.5348479522 -0.9269458627 0.5283997137
H -2.3357777714 -1.9630311872 -0.2476989458
H -1.8645226601 2.0508478226 -0.8273562768
H -3.4676687023 1.2180462266 -0.4249371976
H 0.0110356201 2.1328962499 0.4388900685
H 2.4717801945 2.0611598389 0.4015615580
H 3.6535191560 -0.0823414236 -0.0202711326
H 2.3344379295 -2.1502184923 -0.4019886753
H -0.1186731270 -2.0773431490 -0.3837660207
