22
 xtb: 6.7.1 (edcfbbe)
C           -5.07187694613300       -0.73531020129353        0.04891319142413
C           -4.30499853607317       -1.37274561759257       -0.92105593192054
C           -2.92394921198180       -1.21078048186902       -0.93469655168420
C           -2.29603365331607       -0.40156741007722        0.01671327137522
C           -3.07318242513450        0.23592333315103        0.98842078871581
C           -4.45186004701994        0.06616280622191        1.00416689937998
C           -0.81951800908143       -0.28741739241403        0.01478540974386
C           -0.06561659723454       -1.45909399545694        0.08636605015215
C            1.32006318401888       -1.43014077194271        0.09056371622118
C            2.00364073958744       -0.21280650276388        0.02628989513821
C            1.26323083690116        0.97621150270117       -0.05572668820431
C           -0.13787103093035        0.93467856921934       -0.06558330443483
Cl          -1.02982952134229        2.41643535330525       -0.24149375099649
Cl           2.09208702296077        2.48973129854753       -0.16169782601311
Cl           3.72970342315492       -0.17226349669823        0.04312836945485
Cl           2.18730937752215       -2.93288177488517        0.19176112452095
H           -6.14932463054338       -0.86302395877421        0.06235544581956
H           -4.78114805941286       -1.99590791109031       -1.67108254729545
H           -2.32420640053014       -1.69917947148395       -1.69687570513917
H           -2.59311455096702        0.85353597936600        1.73982345718072
H           -5.04448699342317        0.55924677632249        1.76799323919139
H           -0.57720958288982       -2.41136010652542        0.16075013121272
