26
 xtb: 6.7.1 (edcfbbe)
C           -2.13436078935756        1.08843371137913       -0.60511565210331
C           -1.64185652720149       -0.25326197311597       -0.04822738806255
C           -1.75304685874037       -0.27385459882533        1.47794936099092
C           -0.27999675184100       -0.71505963216189       -0.61833182400416
C            1.07812413275219       -0.11726816662789       -0.16311113200845
C            2.12637610602949       -0.58560228662982       -1.18797152586156
C            1.08254328553716        1.41583865955826       -0.13833984756867
C            1.50665886176700       -0.64786498177114        1.21432764455021
H           -2.03984740295511        1.12400023379610       -1.69550016479636
H           -3.19152324752263        1.23298206048045       -0.35686241381046
H           -1.58418867637403        1.93735344412804       -0.19218987670636
H           -2.34863631734033       -1.00910391740887       -0.42157961373348
H           -1.40966285874077       -1.22525711984152        1.89650311180657
H           -1.16842910738038        0.53042340580446        1.93518339827740
H           -2.79541121164265       -0.12901360740312        1.78202532012747
H           -0.20710908559020       -1.79991250405115       -0.45648364659535
H           -0.34383338489017       -0.58360419122688       -1.70773700214492
H            3.12862898232205       -0.25129383283200       -0.89847225681349
H            1.90970300232832       -0.18387276041557       -2.18379207386148
H            2.14316797693673       -1.67886795279357       -1.26097176373895
H            0.43808299614418        1.81046874538354        0.65200774514073
H            0.74683110954240        1.83105583781568       -1.09452579004007
H            2.09733576889666        1.78422880463660        0.05093942544636
H            1.51117911593911       -1.74356062575155        1.22601490353586
H            0.84993880141366       -0.30406422214316        2.01554192744821
H            2.52157259789953       -0.30700612507736        1.44841749303810
