17
 xtb: 6.7.1 (edcfbbe)
C            1.84863943998788        0.77917752893528       -0.73546853629933
C            1.14826688619202       -0.36067845004675       -0.01724806851216
C            1.95735281326289       -0.93070125398710        1.13084472410459
O           -0.09337355437260        0.13563748772959        0.58075356774289
C           -1.16896391419172        0.21730818649789       -0.23647612634418
O           -1.15889354955248       -0.08476422148573       -1.40748509757031
C           -2.37762304919055        0.69893954908984        0.51980392072583
H            2.78612054480199        0.42166404236887       -1.17269137822752
H            1.22295867653562        1.17193864964336       -1.54002499560541
H            2.08023089905346        1.58522299244819       -0.03198303971519
H            0.87752341687738       -1.14407534252100       -0.73294089703633
H            1.40999029493102       -1.73120632277541        1.63510649855244
H            2.18826033165388       -0.15104129989181        1.86324527397473
H            2.89911236913282       -1.33892391442423        0.75246916400157
H           -2.10638342697869        1.44780145876944        1.26605899162785
H           -2.82220611167487       -0.15232169109134        1.04590200486420
H           -3.10926186680656        1.09588553467750       -0.18337694588968
