 xtb: 6.7.1 (edcfbbe)
          04152519363D

 25 27  0     0  0            999 V2000
    1.7227    1.4765    0.4424 C   0  0  0  0  0  0  0  0  0  0  0  0
    0.4438    0.7783    0.9206 C   0  0  0  0  0  0  0  0  0  0  0  0
    0.2492    1.1409    1.9333 H   0  0  0  0  0  0  0  0  0  0  0  0
    0.4433   -0.7778    0.9212 C   0  0  0  0  0  0  0  0  0  0  0  0
    0.2485   -1.1395    1.9342 H   0  0  0  0  0  0  0  0  0  0  0  0
    1.7217   -1.4772    0.4437 C   0  0  0  0  0  0  0  0  0  0  0  0
    2.7696   -1.2830    1.3481 O   0  0  0  0  0  0  0  0  0  0  0  0
    3.8057   -0.0008    1.0411 S   0  0  0  0  0  0  0  0  0  0  0  0
    4.7319   -0.0006    2.1126 O   0  0  0  0  0  0  0  0  0  0  0  0
    2.7704    1.2824    1.3470 O   0  0  0  0  0  0  0  0  0  0  0  0
   -0.7778   -1.1168    0.0260 C   0  0  0  0  0  0  0  0  0  0  0  0
   -0.4425   -0.6708   -1.3845 C   0  0  0  0  0  0  0  0  0  0  0  0
   -0.4421    0.6700   -1.3850 C   0  0  0  0  0  0  0  0  0  0  0  0
   -0.7771    1.1174    0.0251 C   0  0  0  0  0  0  0  0  0  0  0  0
   -1.7696    0.0007    0.4250 C   0  0  0  0  0  0  0  0  0  0  0  0
   -3.2451    0.0008   -0.5475 Cl  0  0  0  0  0  0  0  0  0  0  0  0
   -2.2182    0.0016    2.1247 Cl  0  0  0  0  0  0  0  0  0  0  0  0
   -1.3570    2.7625    0.1726 Cl  0  0  0  0  0  0  0  0  0  0  0  0
   -0.0767    1.7384   -2.6432 Cl  0  0  0  0  0  0  0  0  0  0  0  0
   -0.0778   -1.7405   -2.6417 Cl  0  0  0  0  0  0  0  0  0  0  0  0
   -1.3588   -2.7615    0.1749 Cl  0  0  0  0  0  0  0  0  0  0  0  0
    1.5289    2.5533    0.3935 H   0  0  0  0  0  0  0  0  0  0  0  0
    2.0092    1.1329   -0.5599 H   0  0  0  0  0  0  0  0  0  0  0  0
    1.5273   -2.5540    0.3957 H   0  0  0  0  0  0  0  0  0  0  0  0
    2.0085   -1.1347   -0.5589 H   0  0  0  0  0  0  0  0  0  0  0  0
  1  2  1  0  0  0  0
  2  3  1  0  0  0  0
  2  4  1  0  0  0  0
  4  5  1  0  0  0  0
  4  6  1  0  0  0  0
  6  7  1  0  0  0  0
  7  8  1  0  0  0  0
  8  9  2  0  0  0  0
  1 10  1  0  0  0  0
  8 10  1  0  0  0  0
  4 11  1  0  0  0  0
 11 12  1  0  0  0  0
 12 13  2  0  0  0  0
  2 14  1  0  0  0  0
 13 14  1  0  0  0  0
 11 15  1  0  0  0  0
 14 15  1  0  0  0  0
 15 16  1  0  0  0  0
 15 17  1  0  0  0  0
 14 18  1  0  0  0  0
 13 19  1  0  0  0  0
 12 20  1  0  0  0  0
 11 21  1  0  0  0  0
  1 22  1  0  0  0  0
  1 23  1  0  0  0  0
  6 24  1  0  0  0  0
  6 25  1  0  0  0  0
M  END
