24
 xtb: 6.7.1 (edcfbbe)
C           -3.57035030357923       -0.26603157477867       -0.40449661589141
O           -2.19630515233015       -0.09502390156901       -0.81326205271237
C           -1.32131133554755        0.09604318126811        0.20622875277276
O           -1.65623036452647        0.14137400437521        1.36788994407762
C            0.09891949522153        0.18955312272995       -0.29755086290701
C            0.75389657010531       -1.20323635624764       -0.18283915261996
C            2.21258951809157       -1.15786633044323       -0.64046973550575
C            3.00785215164652       -0.11533844404520        0.14759562052426
C            2.35654285775310        1.26472539174847        0.04013118101933
C            0.89838119709702        1.22641829927769        0.50024640991363
H           -3.92636072588079        0.62743338339300        0.11491315613389
H           -3.66536047194838       -1.12711218355919        0.26202849012409
H           -4.13088734247932       -0.42592419274392       -1.32536143741572
H            0.07280652297142        0.47255051947662       -1.35702855137112
H            0.70395963641159       -1.52258928593547        0.86643090915407
H            0.18655738791579       -1.93046519763448       -0.77472126826350
H            2.66570859878453       -2.14961655915727       -0.52954299018579
H            2.24915486065341       -0.91008274349875       -1.71043254266302
H            3.04699485851033       -0.41453767554274        1.20401663953598
H            4.04274423688764       -0.07710544194275       -0.21097268648846
H            2.91379012990496        1.99683132592726        0.63530464642267
H            2.40143192676600        1.60544587620941       -1.00377330606481
H            0.84426912517846        0.96266158327807        1.56310549269915
H            0.43519412826926        2.21415828617783        0.39455035684879
