17
CONF1
C 2.7653319895 -0.0127844279 0.7306707495
C 1.9732974213 -0.0188280260 -0.5819625995
C 0.4922346519 0.0213011142 -0.3296607594
C -0.1994214052 1.2233028134 -0.1774079295
C -1.5589754550 1.1955853097 0.1086097965
C -2.1898112020 -0.0354438915 0.2372743854
N -1.5518412568 -1.2070238923 0.0944632236
C -0.2411097456 -1.1573177277 -0.1821785489
H 2.5051144009 -0.8822741409 1.3434622409
H 2.5460774257 0.8888512951 1.3120246295
H 3.8416358941 -0.0410026424 0.5347330137
H 2.2214616882 -0.9192972147 -1.1543387928
H 2.2620571009 0.8464930477 -1.1882122752
H 0.3240844690 2.1694844179 -0.2856318494
H -2.1252102140 2.1132358483 0.2281864504
H -3.2525857887 -0.0862547943 0.4628363219
H 0.2617816542 -2.1166287976 -0.2999705980
