17
CONF1
C 2.7724714877 0.0221203579 0.7316025394
C 1.9732565903 0.0037598726 -0.5782500629
C 0.4904497717 -0.0288054038 -0.3267992147
C -0.2066092252 -1.2257798991 -0.1694899141
C -1.5659366658 -1.1917791567 0.1143546016
C -2.1905834684 0.0453604697 0.2345799010
N -1.5481279110 1.2077576631 0.0843458725
C -0.2428195477 1.1531390755 -0.1892718479
H 2.5152463713 0.9022851812 1.3289610830
H 3.8484941816 0.0430286519 0.5344815392
H 2.5501861684 -0.8645936964 1.3333647986
H 2.2624488072 -0.8701937593 -1.1731200852
H 2.2234830820 0.8901184252 -1.1722894308
H 0.3126362204 -2.1753956518 -0.2730403317
H -2.1352431406 -2.1073109636 0.2371718423
H -3.2539693239 0.1068571121 0.4594441472
H 0.2610544490 2.1126499975 -0.3151286143
