15
 xtb: 6.7.1 (edcfbbe)
C            2.07634190745314        0.02481347888565       -0.11025227309963
C            0.76468495711128        0.70237793778173        0.27538119542378
C           -0.46322309406607        0.02182542257973       -0.33078160816829
H           -0.34230861417050       -0.02031176534991       -1.42126935085776
C           -1.75448904812254        0.75740290359607        0.00538032083749
O           -0.54326110060839       -1.35779738805066        0.06274671008592
H            2.22431737219636        0.05358302053032       -1.19497380648867
H            2.07439807063111       -1.02412834454683        0.19633214762541
H            2.93116438112011        0.52072040492127        0.35867572588122
H            0.77381056738716        1.75271192800386       -0.04371941919958
H            0.65079433780756        0.71513948216002        1.36963703621002
H           -2.61376131089388        0.23484832708078       -0.42312099774015
H           -1.89182637064630        0.81606303422541        1.09240450221758
H           -1.73692530366823        1.78050350159412       -0.38404197874567
H           -0.69896634127534       -1.37685528913892        1.01485318927160
