15
CONF1
C 1.6113703843 -0.9080756713 -0.0080988544
C 0.4440965896 0.0022852075 0.3322378239
C 0.6984132560 1.4406271521 -0.1103934221
O -0.7013008765 -0.5639624694 -0.3176137884
C -1.9347945922 -0.0171747624 0.1126296694
H 1.3982728206 -1.9337123951 0.3031039878
H 1.7867261860 -0.9040306109 -1.0883864613
H 2.5217457678 -0.5684085993 0.4939844259
H 0.2709180221 -0.0166866572 1.4235529998
H -0.1163976246 2.1101225526 0.1781382572
H 0.8129658344 1.4795158484 -1.1986083955
H 1.6161564747 1.8199250013 0.3494642333
H -2.0701845307 1.0253665703 -0.2105568431
H -2.0329988755 -0.0612898174 1.2093229330
H -2.7249063735 -0.6236450080 -0.3368424150
15
CONF2
C 1.3008022523 -0.9590570007 -0.3662544392
C 0.5380855151 0.0711719850 0.4627868945
C 0.7179362695 1.4887849466 -0.0736559454
O -0.8449653850 -0.2790501995 0.6345561044
C -1.6204720422 -0.3163408613 -0.5521168787
H 2.3768868808 -0.7760678342 -0.2867411040
H 1.0946995948 -1.9699385361 -0.0027512765
H 1.0362329887 -0.9052049315 -1.4270172311
H 0.9201936304 0.0394904437 1.4904026155
H 0.4502343971 1.5614903030 -1.1325455937
H 1.7656291732 1.7907034400 0.0210847277
H 0.1033490303 2.1932551556 0.4942202372
H -1.2574183545 -1.0674714902 -1.2684858670
H -1.6660157191 0.6604272069 -1.0549761898
H -2.6323611543 -0.5933248854 -0.2467696261
