16
 xtb: 6.7.1 (edcfbbe)
C            2.49243814238386        1.17844619523672       -0.29018857769656
C            1.69955521048741       -0.08405715246443       -0.03540647768026
O            2.25564513082709       -1.15002493272196        0.15837215554509
C            0.20688980940049        0.00770703847153       -0.02585039081856
C           -0.49178197140113        1.20051906988358       -0.21984366796409
C           -1.87938919972391        1.17980926114513       -0.18947808037198
C           -2.52044412694105       -0.03471656249757        0.03312191471647
N           -1.87298849195839       -1.19157649213380        0.21987950474904
C           -0.54180660320065       -1.15796364304204        0.18936751334142
H            2.27784609520007        1.93064337849591        0.47694064247258
H            2.22792025381724        1.61476218131694       -1.25954508775219
H            3.55494337907962        0.93725311842857       -0.27569090396965
H            0.03372172678021        2.13420820644485       -0.39114824981950
H           -2.45677083100757        2.08639601200882       -0.33519464338173
H           -3.60769319157865       -0.08408811353426        0.06284019126212
H           -0.01580415289018       -2.09761904656216        0.34117848351274
