20
CONF2
C -3.6531918476 0.0419276519 -0.0304284116
C -2.1552757657 0.0083354907 -0.0304857483
C -1.4136565155 1.1949509216 -0.0637278796
C -0.0266145630 1.1708022091 -0.0963386681
C 0.6638015093 -0.0496296114 -0.0952275001
C -0.0767131727 -1.2395374770 -0.0568946419
C -1.4615262927 -1.2087064461 -0.0233262922
C 2.1451300799 -0.1135534978 -0.1343719164
O 2.7267323419 -1.2014648439 -0.1539746962
C 2.9285158049 1.1678484404 -0.1516143249
H -4.0294091277 0.1626021787 -1.0537494175
H -4.0720443064 -0.8849366067 0.3689590339
H -4.0305031249 0.8857559955 0.5538954534
H -1.9345065795 2.1482642890 -0.0636361131
H 0.5163710868 2.1090955467 -0.1211946930
H 0.4461160086 -2.1899663115 -0.0500366352
H -2.0208539810 -2.1393755322 0.0098154787
H 2.6850427165 1.7817769440 0.7217822291
H 2.6737817302 1.7574208426 -1.0390900945
H 3.9956083453 0.9439722998 -0.1573165435
