20
CONF1
C -3.6665109169 -0.0335649808 -0.0136699067
C -2.1646875153 -0.0204324743 0.0096086223
C -1.4334733992 -1.2102096450 0.0079783690
C -0.0439683355 -1.1950506038 0.0013993270
C 0.6537289460 0.0168038000 -0.0014085158
C -0.0769364107 1.2114666687 0.0020111748
C -1.4610381445 1.1907475067 0.0090622932
C 2.1443328570 0.0910312687 -0.0023384778
O 2.7159505626 1.1683305788 -0.0056757464
C 2.9322027176 -1.2020073787 -0.0022353339
H -4.0638645520 -0.9875035450 0.3418066540
H -4.0795345285 0.7673218257 0.6062824376
H -4.0368402940 0.1210879884 -1.0342374841
H -1.9604520269 -2.1603088586 0.0132364774
H 0.4924466555 -2.1379431271 0.0025546157
H 0.4713014405 2.1475790867 0.0038350647
H -2.0138971563 2.1264333904 0.0155847109
H 2.6917950137 -1.8035191468 0.8811496048
H 3.9960539328 -0.9658683546 -0.0037335600
H 2.6898548264 -1.8058807460 -0.8835216132
