18
 xtb: 6.7.1 (edcfbbe)
C           -3.19272499479049        0.56920902644634        0.00303742084390
O           -2.29996247475836       -0.53512984334499       -0.00941065520920
C           -0.95780187653333       -0.25175505785707       -0.00351011339709
C           -0.10203123875340       -1.35553319250450        0.00037839501992
C            1.27119245509018       -1.18077513683424        0.00714616251624
C            1.83486393331707        0.10287452129830        0.00837122015576
C            0.97173319963560        1.19879435451218        0.00320781123556
C           -0.41234747906985        1.03071559467453       -0.00234393975339
N            3.22651555209019        0.27443054429905        0.08724308975995
H           -3.06828912203659        1.19735721447827       -0.88992304879562
H           -3.05639927650816        1.18578487237889        0.90222143379974
H           -4.19759780584513        0.14398299810428        0.00669717587671
H           -0.53409681730920       -2.35045901345298       -0.00175611909075
H            1.91992350897187       -2.05252011914460        0.01888731762976
H            1.38069688201166        2.20554375568137        0.01130134611751
H           -1.04361413176997        1.91080512412953       -0.00714149615687
H            3.75100686595483       -0.49308996181264       -0.30618145397896
H            3.54865076838125        1.15065763572781       -0.29648630888890
