12
CONF2
C -1.7721524708 0.6826260691 -0.0013830582
C -0.4793914900 -0.0877010703 0.0022687714
O -0.4778978265 -1.3339876172 -0.0017784495
N 0.6487391192 0.6461449592 0.0043398621
C 1.9909310275 0.0839019237 -0.0011043241
H -2.3179872955 0.4424531818 -0.9190631938
H -2.3826363048 0.3471594533 0.8417953808
H -1.6329624704 1.7637237925 0.0598707477
H 0.5581288170 1.6510332304 0.0062336258
H 2.5404485903 0.4064675832 -0.8909750037
H 1.9233006517 -1.0040595334 -0.0030007215
H 2.5457318771 0.4030294675 0.8866957212
