 xtb: 6.7.1 (edcfbbe)
          04152519393D

 19 19  0     0  0            999 V2000
   -2.9713    0.6457   -0.7519 C   0  0  0  0  0  0  0  0  0  0  0  0
   -2.2692    0.3513    0.5751 C   0  0  0  0  0  0  0  0  0  0  0  0
   -0.8521   -0.0841    0.3326 C   0  0  0  0  0  0  0  0  0  0  0  0
   -0.5471   -1.4262    0.1366 C   0  0  0  0  0  0  0  0  0  0  0  0
    0.7522   -1.8166   -0.1278 C   0  0  0  0  0  0  0  0  0  0  0  0
    1.7648   -0.8770   -0.2031 C   0  0  0  0  0  0  0  0  0  0  0  0
    1.4698    0.4667   -0.0111 C   0  0  0  0  0  0  0  0  0  0  0  0
    0.1623    0.8560    0.2548 C   0  0  0  0  0  0  0  0  0  0  0  0
    2.4278    1.4338   -0.0732 O   0  0  0  0  0  0  0  0  0  0  0  0
   -2.9817   -0.2427   -1.3794 H   0  0  0  0  0  0  0  0  0  0  0  0
   -2.4496    1.4357   -1.2871 H   0  0  0  0  0  0  0  0  0  0  0  0
   -3.9976    0.9613   -0.5786 H   0  0  0  0  0  0  0  0  0  0  0  0
   -2.8125   -0.4350    1.1030 H   0  0  0  0  0  0  0  0  0  0  0  0
   -2.2794    1.2500    1.1944 H   0  0  0  0  0  0  0  0  0  0  0  0
   -1.3310   -2.1669    0.1950 H   0  0  0  0  0  0  0  0  0  0  0  0
    0.9836   -2.8611   -0.2765 H   0  0  0  0  0  0  0  0  0  0  0  0
    2.7825   -1.1828   -0.4087 H   0  0  0  0  0  0  0  0  0  0  0  0
   -0.0423    1.9053    0.4020 H   0  0  0  0  0  0  0  0  0  0  0  0
    3.2840    1.0308   -0.2607 H   0  0  0  0  0  0  0  0  0  0  0  0
  1  2  1  0  0  0  0
  2  3  1  0  0  0  0
  3  4  4  0  0  0  0
  4  5  4  0  0  0  0
  5  6  4  0  0  0  0
  6  7  4  0  0  0  0
  3  8  4  0  0  0  0
  7  8  4  0  0  0  0
  7  9  1  0  0  0  0
  1 10  1  0  0  0  0
  1 11  1  0  0  0  0
  1 12  1  0  0  0  0
  2 13  1  0  0  0  0
  2 14  1  0  0  0  0
  4 15  1  0  0  0  0
  5 16  1  0  0  0  0
  6 17  1  0  0  0  0
  8 18  1  0  0  0  0
  9 19  1  0  0  0  0
M  END
