17
 xtb: 6.7.1 (edcfbbe)
C            2.78658904086002        0.35816100917315        0.64970890609265
C            1.93810462491052       -0.25867901863854       -0.49165776409745
C            0.45464879155752       -0.13109521517205       -0.26174334690295
C           -0.15913407996398        1.12743166283055       -0.26156966553011
C           -1.52255110452190        1.21862313838212       -0.03000786980933
C           -2.24204406463032        0.04885316511255        0.19615416655107
C           -1.55229199343134       -1.15620314592171        0.17525735574479
N           -0.23647534576291       -1.25809259223049       -0.04651272648255
H            2.15030117721725        0.79954223075495        1.42158058688818
H            3.45208030091343        1.14329176308503        0.28232879993748
H            3.40549351116967       -0.40069829084930        1.13384696496794
H            2.16195409829376       -1.32051600962397       -0.61046514480312
H            2.18611185042843        0.23043597115828       -1.44056688885721
H            0.43520352452877        2.01841468834500       -0.44203092023640
H           -2.01875018690256        2.18426552779605       -0.02802966850408
H           -3.31042986038626        0.06879646621347        0.38144597530591
H           -2.08006280599390       -2.09353788008487        0.34483435228407
