16
CONF1
C -0.6915866534 -1.2061041485 0.3246040260
C 0.6929076710 -1.2053415296 -0.3244736792
C 1.4911893476 0.0222629797 0.1201367585
C 0.6642173682 1.2753078302 0.0660345973
C -0.6657076283 1.2745466576 -0.0660053748
C -1.4912157003 0.0205775157 -0.1201419897
H -0.5738061163 -1.1846713657 1.4162622739
H -1.2373476681 -2.1228423265 0.0769793237
H 1.2397154685 -2.1214374054 -0.0767721330
H 0.5751059468 -1.1841303108 -1.4161349190
H 1.8686617532 -0.1223940873 1.1435982257
H 2.3830594569 0.1476397648 -0.5067500042
H 1.1944868358 2.2243811545 0.1301124074
H -1.1970008622 2.2230379133 -0.1300535990
H -2.3832776834 0.1449373212 0.5066506355
H -1.8684247814 -0.1245705731 -1.1436178547
