16
CONF1
C -0.6932174692 -1.2051458319 0.3250288203
C 0.6911084819 -1.2063719235 -0.3251528744
C 1.4909361956 0.0203004194 0.1206416962
C 0.6648918077 1.2741123050 0.0656593071
C -0.6627155070 1.2752738806 -0.0655967126
C -1.4909200411 0.0229707837 -0.1206512739
H -0.5754037139 -1.1813192941 1.4164057281
H -1.2397362069 -2.1224349561 0.0805076656
H 1.2360400275 -2.1246275279 -0.0806851421
H 0.5733658593 -1.1822176666 -1.4165299237
H 1.8670891860 -0.1255254153 1.1446755800
H 2.3834276546 0.1419150049 -0.5063282874
H 1.1949851778 2.2224123497 0.1294387212
H -1.1910512666 2.2245226354 -0.1293620115
H -2.3831378440 0.1460721025 0.5063636769
H -1.8673711364 -0.1221296905 -1.1446437523
