 xtb: 6.7.1 (edcfbbe)
          04152519473D

 19 19  0     0  0            999 V2000
   -2.6517   -0.5720    0.7704 C   0  0  0  0  0  0  0  0  0  0  0  0
   -1.8472   -0.6305   -0.5318 C   0  0  0  0  0  0  0  0  0  0  0  0
   -0.3796   -0.3935   -0.2818 C   0  0  0  0  0  0  0  0  0  0  0  0
    0.4972   -1.4660   -0.1947 C   0  0  0  0  0  0  0  0  0  0  0  0
    1.8436   -1.2808    0.0594 C   0  0  0  0  0  0  0  0  0  0  0  0
    2.3369    0.0011    0.2316 C   0  0  0  0  0  0  0  0  0  0  0  0
    1.4844    1.0838    0.1514 C   0  0  0  0  0  0  0  0  0  0  0  0
    0.1292    0.8956   -0.0987 C   0  0  0  0  0  0  0  0  0  0  0  0
   -0.6526    2.0105   -0.1562 O   0  0  0  0  0  0  0  0  0  0  0  0
   -2.5312    0.3881    1.2688 H   0  0  0  0  0  0  0  0  0  0  0  0
   -2.3093   -1.3472    1.4520 H   0  0  0  0  0  0  0  0  0  0  0  0
   -3.7100   -0.7282    0.5722 H   0  0  0  0  0  0  0  0  0  0  0  0
   -2.2427    0.1000   -1.2465 H   0  0  0  0  0  0  0  0  0  0  0  0
   -1.9743   -1.6166   -0.9820 H   0  0  0  0  0  0  0  0  0  0  0  0
    0.1110   -2.4662   -0.3320 H   0  0  0  0  0  0  0  0  0  0  0  0
    2.5039   -2.1325    0.1211 H   0  0  0  0  0  0  0  0  0  0  0  0
    3.3865    0.1593    0.4288 H   0  0  0  0  0  0  0  0  0  0  0  0
    1.8428    2.0926    0.2829 H   0  0  0  0  0  0  0  0  0  0  0  0
   -1.5651    1.7596   -0.3409 H   0  0  0  0  0  0  0  0  0  0  0  0
  1  2  1  0  0  0  0
  2  3  1  0  0  0  0
  3  4  4  0  0  0  0
  4  5  4  0  0  0  0
  5  6  4  0  0  0  0
  6  7  4  0  0  0  0
  3  8  4  0  0  0  0
  7  8  4  0  0  0  0
  8  9  1  0  0  0  0
  1 10  1  0  0  0  0
  1 11  1  0  0  0  0
  1 12  1  0  0  0  0
  2 13  1  0  0  0  0
  2 14  1  0  0  0  0
  4 15  1  0  0  0  0
  5 16  1  0  0  0  0
  6 17  1  0  0  0  0
  7 18  1  0  0  0  0
  9 19  1  0  0  0  0
M  END
