17
 xtb: 6.7.1 (edcfbbe)
C           -1.09245694864349       -1.91535249467173       -0.00015633562440
C           -0.01982918918938       -0.86700945095226       -0.00001342089025
C            1.32245239137766       -1.24768308650385        0.00017087652811
C            2.35217012998432       -0.31054819621370        0.00021775576550
C            2.06463263003158        1.05094980866859       -0.00000717112391
C            0.73840097323473        1.45310556526958       -0.00033264848929
C           -0.30536802434795        0.51827064534821       -0.00037881905172
C           -1.67287844799518        1.06599618891686       -0.00129330158996
O           -2.70764768431573        0.42952567735152        0.00016767752197
H           -1.74575854195256       -1.81470624343406        0.87125221964198
H           -1.74592260527826       -1.81431594134365       -0.87139689031177
H           -0.64564540105608       -2.91271219129422       -0.00042341475536
H            1.56532239901846       -2.30651632444544        0.00025658309740
H            3.38409366245054       -0.64791788703366        0.00041552407160
H            2.86409415948244        1.78403761404087        0.00003075982274
H            0.48972257288102        2.51170298957422       -0.00050081901272
H           -1.70051209769667        2.18187959454625        0.00024345941821
