31
 xtb: 6.7.1 (edcfbbe)
C            3.75171043749985       -0.31058431966827       -0.16056295045652
C            2.31457432467524       -0.17814788854549        0.33731122692891
H            2.33766504859779        0.06394408058477        1.41124079920756
C            1.52878607679277       -1.47798753578867        0.16508823097977
C            0.07592560403266       -1.33568836245379        0.61823956285360
C           -0.67217244123269       -0.21487811416458       -0.12515141621150
H           -0.65196164566218       -0.45214893816207       -1.20115728783816
C            0.12240907511614        1.08187836746455        0.07581461866317
H            0.11338610490316        1.30634867501415        1.15930583591644
C            1.57125644646390        0.94499768251116       -0.38715241501314
O           -0.52675043579664        2.14811371977835       -0.63262863944226
C           -2.15922455190833       -0.06310510526269        0.30654270343849
C           -3.02231921992425        0.50204263724346       -0.82872908316776
C           -2.79841392394259       -1.37078904164646        0.79006240685594
H            4.30935158447558        0.62158316045987       -0.02212852579933
H            4.28368525800816       -1.10562654179414        0.37221643596454
H            3.76682662098355       -0.55451621428611       -1.22915880429865
H            1.55224532887233       -1.76571636438398       -0.89649643492542
H            2.01638320967162       -2.28800998516114        0.72173450954239
H           -0.44134455404729       -2.28716165735422        0.46742641388094
H            0.04924673825360       -1.13335695611405        1.69924966793766
H            1.57216658861324        0.75080921710534       -1.46931662455156
H            2.09360970365180        1.90064962698592       -0.23244972015545
H            0.01707826784230        2.93729086514726       -0.53211786437178
H           -2.18337306767080        0.64922154563991        1.14511132091676
H           -3.06225327320453       -0.21413290591780       -1.65884692351666
H           -2.62949903250374        1.44438061314543       -1.20872589089755
H           -4.04932205125965        0.66425477603399       -0.48410678318570
H           -2.31381309504691       -1.78036802749405        1.68016259464136
H           -2.77141088782058       -2.13505807133205        0.00400476264628
H           -3.85031933347586       -1.19524625702999        1.03732161540001
