15
 xtb: 6.7.1 (edcfbbe)
C           -2.39602882770037        0.07836839395921        0.00797334533053
C           -0.91923282375352        0.46285854666118       -0.05580084797198
C            0.00457158653116       -0.71072276748610        0.12837905228825
C            1.33627129580767       -0.63441231972696        0.09044278583869
C            2.09468886934308        0.64109307738329       -0.14292085675756
H           -3.04118611857029        0.95072043776430       -0.12961008626430
H           -2.64079558336717       -0.37192520296688        0.97550535958741
H           -2.64350403896668       -0.64971511008357       -0.77138260725121
H           -0.70545310897841        0.95031353446709       -1.01776595938371
H           -0.70185020390540        1.22346606202830        0.70789727858432
H           -0.46135964051309       -1.67933950918359        0.30382292719403
H            1.91547952564435       -1.54313976221701        0.23540707222523
H            1.84555977410290        1.39755398998243        0.61144723994021
H            1.84880778054406        1.07892147548089       -1.11844583907503
H            3.17431499045475        0.48123091358297       -0.11211593793484
