12
CONF2
C -2.0055260496 0.6818801487 0.4232053459
O -1.1086463240 -0.4122690513 0.4320488320
S 0.3645083938 -0.0050318904 -0.1069600505
O 0.9449613042 0.9408102571 0.7931730620
O 0.2714979392 0.3629096746 -1.4845573381
C 1.1313383983 -1.6149012012 0.0741988942
H -2.1150035999 1.0599652104 -0.5957666536
H -1.6215266353 1.4777899301 1.0653145311
H -2.9595102730 0.3158887426 0.7986342673
H 2.1615255308 -1.5390169390 -0.2475378233
H 1.0678440322 -1.8832045303 1.1188259363
H 0.5782760184 -2.3035733705 -0.5480143661
12
CONF1
C -2.1681242606 -0.0693096655 0.0090665242
O -0.9948726287 0.1742305022 0.7538836359
S 0.4015755259 0.1065568765 -0.0426246274
O 1.3540509035 0.8174395789 0.7382564776
O 0.1833980641 0.4857221789 -1.4050902570
C 0.7796715071 -1.6546547558 0.0239722451
H -2.9536607859 0.5731144025 0.4061137039
H -2.4668037107 -1.1164539959 0.1080918497
H -1.9852335618 0.1711687377 -1.0400982162
H 0.0369539751 -2.1829670886 -0.5573013408
H 1.7648458968 -1.7921840623 -0.3999123646
H 0.7634366174 -1.9499957029 1.0633935214
12
CONF3
C -1.9544221564 0.5342910391 0.8986890131
O -1.2049591858 -0.3170821852 0.0569445660
S 0.3594022586 0.0219502250 -0.1747750669
O 0.8013075645 0.8956797489 0.8688417959
O 0.5662470836 0.4215249105 -1.5281137887
C 1.0288405081 -1.6271480706 0.0638137760
H -1.2731242825 1.0992255398 1.5377100918
H -2.6123096652 -0.0902429631 1.5040784022
H -2.5486523475 1.2239737988 0.2957654939
H 0.4810703401 -2.2888255318 -0.5916222549
H 2.0780457837 -1.6038177492 -0.1978872049
H 0.8918318902 -1.8910402706 1.1026599848
12
CONF4
C -2.0026274240 0.6884547020 0.4219868101
O -1.1115730864 -0.4103337202 0.4326847105
S 0.3644050920 -0.0071242663 -0.1066926035
O 0.9417542655 0.9414334864 0.7930263418
O 0.2675035517 0.3628163343 -1.4837852307
C 1.1399500502 -1.6193805909 0.0732341886
H -1.6149421083 1.4823665141 1.0641912799
H -2.9592123348 0.3280753338 0.7961412681
H -2.1081782958 1.0661960925 -0.5974297725
H 0.3763470245 -2.2846797645 0.4501383866
H 1.4881654401 -1.9370511834 -0.8998336036
H 1.9563197342 -1.5246028268 0.7757372400
12
CONF5
C -1.8544703235 0.0926691839 1.1203626531
O -1.2528147171 0.0520542141 -0.1550866388
S 0.3558297026 0.0824134324 -0.1984538602
O 0.8369702641 0.8150710992 0.9330812690
O 0.7202050046 0.5013456816 -1.5079814445
C 0.7871598163 -1.6634219669 0.0082138537
H -2.0584788942 -0.9209831417 1.4772221650
H -2.7906122712 0.6422064826 1.0275084351
H -1.1878625011 0.6046838743 1.8170509129
H 1.4579660670 -1.7392284583 0.8527579279
H -0.1200424900 -2.2251928207 0.1805782882
H 1.2681143535 -1.9876172992 -0.9038335039
12
CONF6
C -2.1912079379 0.3506103191 0.0676427914
O -1.0278315819 -0.1419961365 0.6990851556
S 0.3937326758 0.0467254953 -0.0496970559
O 1.2281098841 0.8963356192 0.7349920392
O 0.1491179753 0.4026683674 -1.4144147458
C 1.0163173199 -1.6435617637 0.0457690487
H -2.9673321535 -0.4119719475 0.1466938690
H -1.9701084623 0.5586177266 -0.9807954526
H -2.5195036032 1.2663411392 0.5632360382
H 0.2190422114 -2.2686597269 0.4209773347
H 1.3068627604 -1.9411925151 -0.9523015974
H 1.8615986554 -1.6478325371 0.7193548189
