12
CONF2
C -2.0364364950 0.7057516467 0.4263072808
O -1.1003101308 -0.4015186468 0.4232020837
S 0.4042244217 0.0068934950 -0.1224782735
O 1.0137013854 0.9472863310 0.8188679329
O 0.3214354642 0.3482199095 -1.5431560524
C 1.1270564496 -1.6271472831 0.0788791806
H -2.1848989560 1.0836883835 -0.5898409214
H -1.6827167827 1.5033818926 1.0866540358
H -2.9662631456 0.2861405343 0.8099236871
H 2.1652120853 -1.5423870969 -0.2486806142
H 1.0723409365 -1.9014223999 1.1331089081
H 0.5763937333 -2.3276400529 -0.5502222285
12
CONF3
C -2.0093573867 0.5952339887 0.8652643217
O -1.0851329387 -0.4995892851 0.6424607584
S 0.3679227868 -0.0189640666 0.0218894095
O 1.0579760899 0.8128987168 1.0089377053
O 0.1643623152 0.4832204585 -1.3376457052
C 1.1046102038 -1.6581468527 -0.0262813950
H -1.5871043584 1.3141678687 1.5744073614
H -2.8995028825 0.1297096814 1.2887749925
H -2.2555655001 1.0860680448 -0.0814685867
H 0.4932435926 -2.2945788290 -0.6674655121
H 2.1045208127 -1.5288513676 -0.4459319129
H 1.1573103221 -2.0426801262 0.9931629067
12
CONF6
C -2.2018070242 0.4594399224 0.2160241598
O -1.1771347029 -0.5595526860 0.3311206808
S 0.2690534537 -0.1196695781 -0.3330018661
O 0.8227187503 1.0019359196 0.4275118868
O 0.1145962077 -0.0101574636 -1.7843017073
C 1.1373752706 -1.6377977610 0.0830192147
H -3.0820575046 0.0282447827 0.6928768509
H -2.4115320427 0.6740462480 -0.8363603447
H -1.8968111159 1.3694663627 0.7417164915
H 0.6289585917 -2.4709558370 -0.4040799695
H 2.1525365110 -1.5224057028 -0.3023635741
H 1.1429171018 -1.7464971020 1.1684008919
12
CONF5
C -1.9152069392 0.1312955712 1.0287199290
O -1.1510171264 0.1654003387 -0.1996346093
S 0.4878685391 0.0902407783 -0.0451787383
O 0.8715104509 0.6452083369 1.2535889226
O 1.0038291896 0.6194931344 -1.2994467121
C 0.7606853453 -1.6933185005 -0.0135096057
H -1.7955205350 -0.8288064001 1.5434343335
H -2.9528032879 0.2499653104 0.7138387532
H -1.6207630643 0.9487464137 1.6902042499
H 1.8392738195 -1.8436685403 0.0726356649
H 0.2509568048 -2.1172975264 0.8538694409
H 0.3831435348 -2.1132575193 -0.9470918108
