10
 xtb: 6.7.1 (edcfbbe)
C           -1.90937117401237        0.08276412065025        0.32784660697547
C           -0.73039054421817        0.66760860445250       -0.42502497754878
N            0.55940646045824       -0.04901916889897       -0.05188386908760
O            0.54806749902248       -1.26883240796546       -0.10894338861635
O            1.51487020040741        0.64148592528590        0.26653388663340
H           -2.03461325103923       -0.97557961454422        0.09376699231217
H           -1.77910634822869        0.19480878561568        1.40759520870081
H           -2.81710226084975        0.61774598064933        0.03535405629854
H           -0.55829608361420        1.72211705757235       -0.20760716015318
H           -0.82937981145109        0.52308920709543       -1.50560030988731
