 xtb: 6.7.1 (edcfbbe)
          04152520163D

 24 24  0     0  0            999 V2000
   -3.3799   -0.8067   -0.0375 C   0  0  0  0  0  0  0  0  0  0  0  0
   -1.9857   -0.7693   -0.3083 O   0  0  0  0  0  0  0  0  0  0  0  0
   -1.3492    0.3551    0.0430 C   0  0  0  0  0  0  0  0  0  0  0  0
   -1.9071    1.2884    0.5597 O   0  0  0  0  0  0  0  0  0  0  0  0
    0.1276    0.3238   -0.3008 C   0  0  0  0  0  0  0  0  0  0  0  0
    0.6682   -1.0831   -0.5492 C   0  0  0  0  0  0  0  0  0  0  0  0
    2.1502   -1.0190   -0.9110 C   0  0  0  0  0  0  0  0  0  0  0  0
    2.9470   -0.3256    0.1899 C   0  0  0  0  0  0  0  0  0  0  0  0
    2.4046    1.0792    0.4363 C   0  0  0  0  0  0  0  0  0  0  0  0
    0.9267    1.0205    0.8053 C   0  0  0  0  0  0  0  0  0  0  0  0
   -3.7312   -1.7748   -0.3848 H   0  0  0  0  0  0  0  0  0  0  0  0
   -3.8909    0.0007   -0.5659 H   0  0  0  0  0  0  0  0  0  0  0  0
   -3.5610   -0.6929    1.0331 H   0  0  0  0  0  0  0  0  0  0  0  0
    0.2326    0.9115   -1.2224 H   0  0  0  0  0  0  0  0  0  0  0  0
    0.5377   -1.6834    0.3534 H   0  0  0  0  0  0  0  0  0  0  0  0
    0.1079   -1.5621   -1.3529 H   0  0  0  0  0  0  0  0  0  0  0  0
    2.5330   -2.0293   -1.0677 H   0  0  0  0  0  0  0  0  0  0  0  0
    2.2711   -0.4675   -1.8465 H   0  0  0  0  0  0  0  0  0  0  0  0
    2.8738   -0.9080    1.1111 H   0  0  0  0  0  0  0  0  0  0  0  0
    4.0010   -0.2743   -0.0906 H   0  0  0  0  0  0  0  0  0  0  0  0
    2.9653    1.5600    1.2401 H   0  0  0  0  0  0  0  0  0  0  0  0
    2.5312    1.6810   -0.4666 H   0  0  0  0  0  0  0  0  0  0  0  0
    0.8047    0.4633    1.7371 H   0  0  0  0  0  0  0  0  0  0  0  0
    0.5275    2.0234    0.9617 H   0  0  0  0  0  0  0  0  0  0  0  0
  1  2  1  0  0  0  0
  2  3  1  0  0  0  0
  3  4  2  0  0  0  0
  3  5  1  0  0  0  0
  5  6  1  0  0  0  0
  6  7  1  0  0  0  0
  7  8  1  0  0  0  0
  8  9  1  0  0  0  0
  5 10  1  0  0  0  0
  9 10  1  0  0  0  0
  1 11  1  0  0  0  0
  1 12  1  0  0  0  0
  1 13  1  0  0  0  0
  5 14  1  0  0  0  0
  6 15  1  0  0  0  0
  6 16  1  0  0  0  0
  7 17  1  0  0  0  0
  7 18  1  0  0  0  0
  8 19  1  0  0  0  0
  8 20  1  0  0  0  0
  9 21  1  0  0  0  0
  9 22  1  0  0  0  0
 10 23  1  0  0  0  0
 10 24  1  0  0  0  0
M  END
