 xtb: 6.7.1 (edcfbbe)
          04162509443D

 10 10  0     0  0            999 V2000
   -1.8949    0.0870    0.3288 C   0  0  0  0  0  0  0  0  0  0  0  0
   -0.7063    0.6722   -0.4184 C   0  0  0  0  0  0  0  0  0  0  0  0
    0.5313   -0.0555   -0.0620 N   0  0  0  0  0  0  0  0  0  0  0  0
    0.5082   -1.2583   -0.1431 O   0  0  0  0  0  0  0  0  0  0  0  0
    1.4825    0.6060    0.2744 O   0  0  0  0  0  0  0  0  0  0  0  0
   -1.9543   -0.9836    0.1485 H   0  0  0  0  0  0  0  0  0  0  0  0
   -1.7981    0.2574    1.3985 H   0  0  0  0  0  0  0  0  0  0  0  0
   -2.8135    0.5530   -0.0155 H   0  0  0  0  0  0  0  0  0  0  0  0
   -0.5465    1.7253   -0.1827 H   0  0  0  0  0  0  0  0  0  0  0  0
   -0.8444    0.5527   -1.4964 H   0  0  0  0  0  0  0  0  0  0  0  0
  1  2  1  0  0  0  0
  2  3  1  0  0  0  0
  3  4  4  0  0  0  0
  3  5  4  0  0  0  0
  4  5  1  0  0  0  0
  1  6  1  0  0  0  0
  1  7  1  0  0  0  0
  1  8  1  0  0  0  0
  2  9  1  0  0  0  0
  2 10  1  0  0  0  0
M  END
