8
CONF1
C 1.4282755489 0.5248336363 -0.0001394606
O 0.5816122297 -0.6603666411 -0.0001703600
C -0.7442905685 -0.4934376994 0.0007827519
O -1.3384801328 0.5652556936 0.0009327740
H 0.8278515977 1.4341693458 -0.0043348155
H 2.0527362431 0.4719201989 -0.8932850614
H 2.0470175178 0.4764960774 0.8972744054
H -1.2348447417 -1.4767757240 -0.0008215285
