8
CONF2
C 1.3840188105 0.5335561515 0.0005346824
O 0.5979610832 -0.6817856851 0.0014856633
C -0.7323382021 -0.4909534127 -0.0005829684
O -1.2908093522 0.5749782644 -0.0030991824
H 1.1568625684 1.1306310431 0.8872178197
H 1.1675469381 1.1220517241 -0.8945602773
H 2.4232491081 0.2073637460 0.0081742827
H -1.2335236780 -1.4722987804 0.0006211298
