15
 xtb: 6.7.1 (edcfbbe)
C            0.03767208078214       -1.21381626769272        0.00001794461973
C            1.42025764928988       -1.21358224660787        0.00000788478814
C            2.11312351092334        0.00096803649114       -0.00000799520823
C            1.41805791830785        1.21484657096827       -0.00001287108399
C            0.03316734974898        1.21547040443151       -0.00000164499164
C           -0.64364397753451        0.00089841300318        0.00002408758757
N           -2.11048268604592        0.00077223174495        0.00007544394709
O           -2.68015339190706        1.08785942010541       -0.00000282351883
O           -2.67935168530656       -1.08632136664644       -0.00002491187677
O            3.46913764735329       -0.06334644211178       -0.00001753061580
H           -0.52377508352042       -2.13955554020149        0.00003314559832
H            1.98217824661923       -2.14042942660400        0.00001525331987
H            1.96139119779452        2.15589445116222       -0.00002157892349
H           -0.52907741829546        2.14070563270225       -0.00000060271031
H            3.83635437015970        0.82859020143824       -0.00003766949971
