5
 xtb: 6.7.1 (edcfbbe)
C            0.00001322033643        0.00000714013219        0.00000453391335
H           -1.04866531698666        0.28382287886210       -0.10149812391896
H            0.44532590369246        0.54530380388386        0.83361304697036
H            0.06999333839701       -1.07250691258422        0.18813530707672
H            0.53339736296863        0.24339503028351       -0.92022577223647
