23
 xtb: 6.7.1 (edcfbbe)
C           -2.81026134931324        0.18802265352949       -1.00950117626751
C           -1.76613897328900       -0.03627495528778        0.05729324149346
O           -2.06029578760145       -0.38104372884462        1.18442003742972
C           -0.31229748595317        0.16961204828720       -0.34699405566174
C            0.40461381946194       -1.19459132574795       -0.36342092938054
C            1.88622193149060       -1.03659263933973       -0.70830567991721
C            2.57955024811867       -0.07146597479826        0.25507088281285
C            1.87090926396379        1.28400797243366        0.27836255693307
C            0.38973234280153        1.12934563472983        0.62579685660450
H           -3.80618892432459       -0.03891768473770       -0.62750086880586
H           -2.76795952120867        1.23011490317659       -1.34846162747902
H           -2.59016927821076       -0.43288621794477       -1.88591354398323
H           -0.27676489244755        0.59427558464167       -1.36060816605274
H            0.29636757969536       -1.64605073164249        0.63087493036012
H           -0.08402874305865       -1.86862444826804       -1.07808327510974
H            2.37739363520834       -2.01634762681047       -0.68537314560691
H            1.98413737081052       -0.65759046113474       -1.73524890692638
H            2.56853787134415       -0.50107104863676        1.26614426829870
H            3.63146657064709        0.05399815440611       -0.02586553765177
H            2.35292833590803        1.95302663636792        1.00045125983898
H            1.96705989799016        1.76111564277815       -0.70726674519307
H            0.27750803586953        0.72727273259521        1.63975712987600
H           -0.11013047630831        2.10564890775802        0.61188382636936
