13
 xtb: 6.7.1 (edcfbbe)
C            1.58479011299827        1.30316310174602       -0.00013875549645
C            0.19891294512609        1.36049136899436       -0.00035553397633
C           -0.52213881014708        0.16705355310106       -0.00016618052161
C            0.18800279585100       -1.04083606358606        0.00016259049547
N            1.51754122943240       -1.10867172248830        0.00034386275238
C            2.19211711139707        0.04981817738471        0.00022062572806
C           -1.99796065735695        0.18394051583900       -0.00025037412689
O           -2.69665347709747       -0.80625937362299        0.00018214402235
H            2.18766607584694        2.20481878458349       -0.00024122607943
H           -0.32445753032318        2.31384851649391       -0.00063609492188
H           -0.36236139699667       -1.97971687472907        0.00022294248519
H            3.27792379213647       -0.03091986975674        0.00045572708931
H           -2.44792967041632        1.20463434609239       -0.00078582737285
