26
 xtb: 6.7.1 (edcfbbe)
C           -4.70380262249306       -0.95421411360362       -0.22132957948611
N           -3.40560842026998       -0.86163407789916        0.42368807039529
C           -2.42181228780042       -0.08400149532532       -0.09362538624334
O           -2.52890269130944        0.69691203278718       -1.00927113585663
O           -1.25228713509202       -0.32649400466914        0.61708529040473
C           -0.13475897081440        0.45489369908294        0.35672534001082
C           -0.18929339302192        1.82559494558491        0.38049604543916
C            0.99112539793541        2.56861594951538        0.18641503148436
C            2.19500232277173        1.93875337956236       -0.01338562324929
C            2.27118303205818        0.52654341792715       -0.03572714504273
C            1.07883098761174       -0.24462683848470        0.14369535174826
C            1.15498617564360       -1.65675278701071        0.10539548498768
C            2.36027794819133       -2.28365287573523       -0.09870632988578
C            3.54021210246013       -1.52940118247178       -0.26809807849381
C            3.49407035002278       -0.15739430157575       -0.23795578024941
H           -4.94302109148124        0.01216945743499       -0.66906257190725
H           -5.46387405175290       -1.19762486663644        0.52577476745230
H           -4.72213251420398       -1.71561496165279       -1.01187818630539
H           -3.14447755978516       -1.53753945413046        1.12221465130273
H           -1.13657048828564        2.32598125744748        0.53771320202810
H            0.93794172002586        3.65224154886839        0.20080551362956
H            3.10336959820106        2.51585094280887       -0.15723323576828
H            0.24756523444931       -2.23433375628945        0.23604271761567
H            2.40767552155668       -3.36733827587575       -0.13138822021912
H            4.48563044645206       -2.03869780102747       -0.42479415524612
H            4.39980689493571        0.42726056223174       -0.37109980877228
