15
 xtb: 6.7.1 (edcfbbe)
C           -1.73899015419033       -0.82258981245598        0.00445610787558
C           -0.50478566806035        0.00393547858781       -0.36027915575827
C           -0.66742189554771        1.45612484513300        0.08948103931673
C            0.73773991596338       -0.63761495647061        0.26078270806812
O            1.96087077576667        0.00515261706992       -0.09775803963805
H           -1.89389198964018       -0.83029163545930        1.09004133812546
H           -1.63918254192151       -1.86116422237283       -0.32821859571434
H           -2.64028920245386       -0.40710074960977       -0.45619004747952
H           -0.37224461494060       -0.01296256577549       -1.45059049509880
H           -1.56694842014986        1.90251383274399       -0.34579038393359
H            0.18057345686987        2.07631085018668       -0.21985589753264
H           -0.76164260193309        1.51549311593012        1.18140157523300
H            0.61971853554616       -0.67434082960793        1.35790299657780
H            0.83547797140659       -1.66985986300853       -0.09311533412584
H            1.98289504505218        0.86597013969622        0.33174827240815
