9
CONF1
C -0.4698260757 -0.7305928538 0.0000034683
C -0.3977001945 0.7722035946 0.0000316017
C 0.8676303694 -0.0417283504 -0.0000197961
H -0.7851924985 -1.2211297732 -0.9154814417
H -0.7851453966 -1.2211649198 0.9154831224
H -0.6648263130 1.2906287136 -0.9154178770
H -0.6647735892 1.2905946377 0.9155158654
H 1.4498804968 -0.0693529280 -0.9156425720
H 1.4499269991 -0.0693906424 0.9155702119
