29
 xtb: 6.7.1 (edcfbbe)
C           -3.37639121674264       -0.28092032708429       -0.16517248361650
C           -2.18978382222056        0.54413222053077        0.33128948532088
H           -2.56920583952943        1.32797199002722        0.99848477417478
C           -1.45803223390385        1.22111515778086       -0.84997100861843
C            0.04821212626837        1.34184223436760       -0.61338881844569
C            0.65919407139234       -0.06397730080473       -0.56862331897674
H            0.59089058028593       -0.49164938664509       -1.58036264287132
C           -0.16507750512019       -1.00129342873352        0.31330489093443
O            0.04385691624559       -2.19847958821568        0.33567965091744
C           -1.21883743645174       -0.33141526360144        1.16319101816888
C            2.15231253389286       -0.14205408162981       -0.16043103982885
C            3.02553682473588        0.69259706513003       -1.09772095556106
C            2.39313408935287        0.24972662056430        1.29985398888778
H           -3.02834929643870       -1.12868539170911       -0.76685994485203
H           -3.96453681286878       -0.67867501494866        0.66776928726747
H           -4.03899526067670        0.32629555155197       -0.79115087016915
H           -1.60929181792908        0.61657380653527       -1.75563860686798
H           -1.90736475494863        2.19895087109886       -1.05340403688170
H            0.51153111595270        1.92382635416833       -1.41645644006362
H            0.24050028067270        1.88767723733478        0.31928955931596
H           -1.75193553020663       -1.08690866099070        1.74608780146946
H           -0.67276209216011        0.31403109434331        1.86596020087480
H            2.43023384081303       -1.19735480644724       -0.27275412638508
H            2.84032678336814        0.44190663885671       -2.14762139824218
H            4.08581035252133        0.51643249882187       -0.89015688978842
H            2.83978811825484        1.76421349180298       -0.96692644109726
H            2.12059369595952        1.29384687965700        1.48846052207939
H            3.45317232837212        0.14017846925648        1.54954892776937
H            1.82732808527423       -0.38636174032787        1.98823520472590
