20
 xtb: 6.7.1 (edcfbbe)
C           -1.48157980231799       -0.29899742412909        1.23868007639635
C           -0.62387158318362       -0.45475995453390       -0.02173725471649
C           -1.48904310278147       -0.19136930074123       -1.25874952683959
C            0.62547426665076        0.45284480618301        0.01106631650196
C            1.46809708190954        0.22519900637224        1.27064281396306
C            1.50496609867709        0.25848838218232       -1.22905824119008
H           -1.76879072192410        0.75013106625733        1.38198891469481
H           -2.40152616006063       -0.88581295806225        1.15217358799361
H           -0.96239261196087       -0.63367410360445        2.14011194498974
H           -0.26796581363179       -1.49603680145426       -0.06714974447167
H           -0.96225349174610       -0.40792102250301       -2.19120739806961
H           -2.38987394038142       -0.81300462524244       -1.23869411629975
H           -1.81002013155747        0.85738417820300       -1.28568270483038
H            0.27065753284229        1.49541970287616        0.02056442156725
H            1.76180463586458       -0.82876652686102        1.35210966456554
H            2.38453935898094        0.82276897904462        1.23414019282234
H            0.93400377475675        0.49923746256117        2.18373821861899
H            1.80405968386136       -0.79262504975347       -1.32599341946462
H            2.41817616403675        0.85708932257243       -1.15130259601166
H            0.99816259554062        0.55231143068873       -2.15153216084100
