10
CONF2
C -1.2056409436 -0.2299735328 0.0858693338
N -0.0051599862 0.6169861941 0.0993987851
C 1.1905128661 -0.2078353724 -0.1184476695
H -1.3553133926 -0.6406782870 -0.9186476863
H -2.0889553180 0.3646855595 0.3383981205
H -1.1492090365 -1.0787457803 0.7886802980
H 0.0713700464 1.0003187456 1.0376780306
H 2.0918460097 0.4056935575 -0.0325766093
H 1.1676658804 -0.6295968401 -1.1289561656
H 1.2766310207 -1.0482699918 0.5910424093
