16
CONF1
C -1.0572289210 -2.1867106200 -0.0000016581
C -0.2033110972 -0.9545129030 0.0000234999
C 1.1869996938 -1.0513841238 0.0000331393
C 1.9931258051 0.0845190096 0.0000127785
C 1.4162845111 1.3523584655 0.0000044902
C 0.0313925564 1.4706774455 -0.0000065016
C -0.7585401126 0.3304930940 -0.0000079954
Cl -2.5085475130 0.5208995145 -0.0000801175
O 3.3468052205 -0.1135093179 0.0000085500
H -1.7088709886 -2.2112190580 -0.8792842953
H -0.4372477582 -3.0850980148 0.0005687569
H -1.7097459262 -2.2106770276 0.8786374421
H 1.6624699009 -2.0265924509 0.0000532724
H 2.0358489449 2.2449524587 0.0000066332
H -0.4335574574 2.4495595428 -0.0000164300
H 3.7907951801 0.7418101989 -0.0000187897
