15
 xtb: 6.7.1 (edcfbbe)
C           -1.10031238588346       -1.86431070099635        0.00016140493171
C            0.24145863804287       -1.49546081608585       -0.00066007952821
C            0.53706109310041       -0.14021897800251       -0.00120422517003
C           -0.44015504214675        0.84697104431988       -0.00103698715112
C           -1.77442277821374        0.45058448032461       -0.00020051454800
C           -2.10566134631206       -0.90697689623646        0.00044394842944
O           -2.80463717634778        1.34140606307103        0.00029265706503
N            1.95492913695009        0.28406290083127       -0.00016920168202
O            2.18580696833182        1.48761720753845        0.00149789193515
O            2.80816158552704       -0.59310513628993        0.00094923194128
H           -1.36603378135011       -2.91587195768140        0.00084313299431
H            1.03992645097778       -2.22488993562113       -0.00059936061285
H           -0.14758865273438        1.89111268309082       -0.00121418735901
H           -3.15246758290105       -1.18968092172589        0.00130462381951
H           -2.45438785120858        2.23980944296702       -0.00004580671778
