23
CONF1
C -3.0147443243 -0.2539078555 -0.0000343064
C -1.6482451996 0.4305822190 0.0000023802
C -0.5058065381 -0.5851604142 -0.0005453532
C 0.9327545296 -0.0243111502 0.0000076982
C 1.1882341217 0.8241075064 -1.2526206530
C 1.1878909496 0.8224666675 1.2538212665
C 1.9022326554 -1.2149171409 -0.0006447726
H -3.1353089253 -0.8896687437 -0.8839022009
H -3.1351890588 -0.8899676766 0.8836345891
H -3.8291736778 0.4769218243 0.0001455493
H -1.5722442768 1.0822721352 -0.8786730828
H -1.5719851101 1.0816258153 0.8791313120
H -0.6178553437 -1.2366814527 -0.8795442538
H -0.6180399216 -1.2378484090 0.8775655385
H 2.2365516736 1.1395695044 -1.2941548962
H 0.9719871606 0.2537901246 -2.1632276769
H 0.5715705249 1.7281766046 -1.2635619745
H 0.5715575447 1.7267501981 1.2655467853
H 2.2363044459 1.1374836247 1.2963018249
H 0.9709399521 0.2511023486 2.1636057369
H 1.7523288824 -1.8407714155 -0.8873235583
H 2.9427312133 -0.8723325627 -0.0005191633
H 1.7524182867 -1.8416977016 0.8853964252
23
CONF2
C -2.5065063061 -1.0158764009 -0.0125244820
C -1.7261409078 0.2090884491 -0.4933389544
C -0.5899550707 0.6364080633 0.4565269484
C 0.8395645316 0.1717969413 0.0954428560
C 1.3132700359 0.8579227733 -1.1933688597
C 1.7747102280 0.5803565290 1.2422953097
C 0.9057319781 -1.3497190617 -0.0831007080
H -2.9724691020 -0.8180835650 0.9590064558
H -3.3020399395 -1.2818182749 -0.7161220236
H -1.8584997770 -1.8891289986 0.1051367081
H -1.3275780256 0.0180761985 -1.4968851067
H -2.4289216986 1.0418570885 -0.6112231905
H -0.8228986423 0.2732136130 1.4674049249
H -0.5627430502 1.7313952977 0.5289026976
H 2.3417750497 0.5633566811 -1.4293119070
H 0.6890414518 0.5903693810 -2.0518964962
H 1.2906894715 1.9483081596 -1.0858485161
H 2.8111017241 0.3045178690 1.0182918421
H 1.4878170561 0.0862467936 2.1772952089
H 1.7421325029 1.6631593783 1.4080682446
H 1.9368777360 -1.6670734783 -0.2754972432
H 0.5567781522 -1.8669030587 0.8176880320
H 0.2942285160 -1.6839501085 -0.9277266938
23
CONF3
C -2.6888082029 -0.8793238185 0.0104153169
C -1.6716681790 0.1123568539 -0.5533449933
C -0.5874782316 0.5114892740 0.4721938843
C 0.8701842763 0.1655027506 0.1000179087
C 1.2892490957 0.9030673460 -1.1783717171
C 1.7787967208 0.6155521374 1.2522236399
C 1.0288248965 -1.3479670977 -0.0951819422
H -3.4461654245 -1.1479703344 -0.7330641071
H -2.1932154707 -1.8009988608 0.3354438001
H -3.2056562450 -0.4576995416 0.8793545680
H -1.2077847704 -0.3269570284 -1.4433179892
H -2.1973012663 1.0058675202 -0.9082888145
H -0.8089666549 0.0235999426 1.4315569791
H -0.6366140665 1.5903958247 0.6671039235
H 2.3378248323 0.6938877048 -1.4173814645
H 0.6872177336 0.5996213145 -2.0406844649
H 1.1806002023 1.9866756393 -1.0556683652
H 2.8283761650 0.3906425387 1.0329391467
H 1.5118847610 0.1057882529 2.1847519172
H 1.6930210108 1.6949915438 1.4200403360
H 0.7455168494 -1.8897480939 0.8143658558
H 0.4087341398 -1.7207823951 -0.9171328755
H 2.0697178434 -1.5991887769 -0.3272228971
23
CONF4
C -2.3991492234 0.6723139766 -0.4172796623
C -1.7708449357 -0.3489125830 0.5316160821
C -0.4364574124 -0.9701746352 0.0963301100
C 0.8200278969 -0.0701486750 -0.0149340721
C 0.8334340043 0.7379829827 -1.3216151679
C 0.9197310864 0.8822659650 1.1821407686
C 2.0491093600 -0.9928669139 -0.0207610522
H -1.8592956071 1.6227059110 -0.4197706420
H -2.4195281172 0.2969172018 -1.4463147707
H -3.4301968045 0.8882837472 -0.1193180877
H -1.6616251145 0.0972167240 1.5276851026
H -2.4773576131 -1.1790991205 0.6581048986
H -0.5767712403 -1.4805999379 -0.8673005648
H -0.2052714881 -1.7605726553 0.8235905222
H 0.7763615598 0.0723467037 -2.1900122147
H 0.0013032925 1.4416768433 -1.3820966106
H 1.7624947865 1.3137158276 -1.4020032123
H 1.8670873083 1.4316332502 1.1555301530
H 0.8762942519 0.3315440997 2.1288140814
H 0.1089832749 1.6177662142 1.1804646099
H 1.9850034661 -1.7233622977 -0.8353658590
H 2.9700499100 -0.4155720725 -0.1578881306
H 2.1323180457 -1.5449256625 0.9218023731
23
CONF5
C -2.3443362910 -1.0288707721 0.4191193273
C -1.8213144948 0.3890240979 0.1810615257
C -0.5665685756 0.5169759851 -0.6947538317
C 0.8172140955 0.1343125476 -0.1156991823
C 1.8733382811 0.5809915016 -1.1397589060
C 1.0735252164 0.8626645626 1.2091062832
C 0.9715121211 -1.3784616336 0.0964492538
H -3.3394446318 -0.9991672648 0.8745003811
H -2.4269466671 -1.5784879373 -0.5251155301
H -1.7014030974 -1.6090394977 1.0837863728
H -2.6143048038 0.9589069588 -0.3194869244
H -1.6616642703 0.8935225407 1.1415314110
H -0.4940733150 1.5688209526 -1.0039339632
H -0.7221080119 -0.0581409443 -1.6188929764
H 2.8816017274 0.3231016386 -0.7979541182
H 1.7102095783 0.0930051139 -2.1072459998
H 1.8362145380 1.6644195880 -1.2974335250
H 2.0994623699 0.6853962776 1.5502167790
H 0.3994007341 0.5150015606 1.9982926250
H 0.9371392799 1.9445174071 1.0973607053
H 0.3437362698 -1.7454991069 0.9109861305
H 0.7111507210 -1.9338522720 -0.8113130364
H 2.0098659694 -1.6184653875 0.3517545528
