15
 xtb: 6.7.1 (edcfbbe)
C           -1.59350536513225        0.89327020547827        0.29770958808814
C           -1.33338812217905       -0.51241932074514       -0.23633752427487
C            0.07827621753272       -1.00345806074871       -0.40079454289545
C            1.27398826932228       -0.45791869559911       -0.15694777286186
C            1.66174851479712        0.88221037763052        0.39030327320577
H           -1.14487668776917        1.65776486788810       -0.34285558139857
H           -1.20695866249560        1.01971977287421        1.31282799441281
H           -2.67126408759396        1.08073854908327        0.33068086153089
H           -1.85562398483408       -1.23781537858914        0.40497560888233
H           -1.82357206144022       -0.61341871038702       -1.21594034211814
H            0.10756321273729       -2.01547282516594       -0.80742160627558
H            2.13077746584020       -1.08912929565920       -0.39543264138833
H            0.81940781988752        1.51063382024391        0.66678521863768
H            2.26661798913412        1.42838321350748       -0.34394605368162
H            2.29565353950184        0.75503625613374        1.27601081894032
