18
 xtb: 6.7.1 (edcfbbe)
C           -1.80263065380020       -1.50716886978345       -0.00058710571918
C           -0.52984065074219       -0.69905159036685        0.00127266952872
C            0.69280022822000       -1.37682228698266        0.00131459273927
C            1.90351695146307       -0.69639155573628        0.00017596474605
C            1.90543464591998        0.69449391355901       -0.00035230327970
C            0.69676922330427        1.37962065105703       -0.00022754826021
C           -0.52907916241212        0.70637234776806        0.00022792807103
C           -1.81011381186628        1.49940820446653       -0.00066175237072
H           -2.69747463535363       -0.88519398429830        0.03279111253361
H           -1.86352526958236       -2.13045144314692       -0.89968684446133
H           -1.83264126832223       -2.18235630937942        0.86142658125581
H            0.68777077332862       -2.46426934298520        0.00218479057818
H            2.83827383372542       -1.24805098112058        0.00015847525875
H            2.84169612029938        1.24349053951602       -0.00071444977163
H            0.69819946366667        2.46633776251344       -0.00056504385489
H           -1.59821386728189        2.57107761703898       -0.00489953816236
H           -2.42342691136617        1.27713734739145       -0.88092566638994
H           -2.42043116441434        1.28394731516061        0.88343110581245
