24
 xtb: 6.7.1 (edcfbbe)
C           -2.90803315557787        0.54759699257972        1.17570756641637
O           -1.77025744992406        0.76722726314249        0.31848182503557
C           -1.05918352707182       -0.34858129919691        0.01842094464210
O           -1.35230802548557       -1.44436726223766        0.43811158904124
C            0.08430908919830       -0.03906501638882       -0.93516671761537
C            1.05726324231417       -1.22162871099346       -1.02038134425275
C            1.88177687410127       -1.37231842108940        0.26185980269895
C            2.60591214712212       -0.07279906053961        0.62211724520655
C            1.62278274335452        1.09625818480351        0.72328881197900
C            0.83081254666667        1.25753347915552       -0.57542695002203
H           -2.59007831031192        0.12178087682695        2.13100027154363
H           -3.61814105709191       -0.13473678417205        0.70115645168229
H           -3.35669599601743        1.53019838079878        1.32246038924015
H           -0.40156615493057        0.10121769111722       -1.91250509976307
H            0.50587802016685       -2.14345509399584       -1.22626195978761
H            1.73090242075867       -1.04217736236141       -1.86856950696631
H            1.21425479782234       -1.65962754716753        1.08346873676236
H            2.60324210216673       -2.18843331527502        0.14150617081246
H            3.15178555678157       -0.19314333815735        1.56494042253947
H            3.35413502226001        0.15573708194490       -0.15050031891401
H            0.92627333237244        0.91812660121271        1.55555825450639
H            2.15474035015826        2.02638965406611        0.95353975180470
H            0.13146041302867        2.09448192383261       -0.50805241855473
H            1.52784032887036        1.47933925998904       -1.39443004846945
