12
CONF2
C 1.8531473558 -0.0725682995 -0.2570081028
C 0.5395483234 0.1690899047 0.4680653637
O -0.5238569065 -0.1462426223 -0.4032490727
C -1.7855150904 0.0445447419 0.1751666826
H 2.6880299193 0.1638406609 0.3967138381
H 1.9193699782 -1.1129349562 -0.5625287968
H 1.9041352407 0.5512485834 -1.1448944981
H 0.4642078770 1.2225940894 0.7839547967
H 0.4800689061 -0.4580228302 1.3727911268
H -1.9196745272 -0.5904183475 1.0609631954
H -2.5204486938 -0.2271305005 -0.5798085886
H -1.9356707050 1.0912105571 0.4714074266
12
CONF1
C 1.5703916985 -0.5281114847 -0.1107074576
C 0.6119917602 0.5921007870 0.2910202980
O -0.6540610767 0.5187116665 -0.3248470963
C -1.4665052073 -0.5331192226 0.1301344926
H 1.2403278401 -1.4875548285 0.2802969560
H 1.6300010881 -0.5922145285 -1.1943225718
H 2.5597281702 -0.3169656222 0.2856743414
H 1.0174339422 1.5556122612 -0.0287668245
H 0.4954035751 0.6054849713 1.3862493950
H -1.5606581673 -0.5164104387 1.2234564459
H -1.0843240151 -1.5127263296 -0.1773806277
H -2.4463685172 -0.3786980174 -0.3181422109
12
CONF3
C 1.5887441025 -0.5123460381 -0.1204068881
C 0.6135400635 0.5849527707 0.3041489909
O -0.6400689732 0.4976147693 -0.3342155923
C -1.4986020714 -0.5204311411 0.1364227887
H 1.2220895549 -1.4943877512 0.1701314506
H 1.7139313077 -0.4959817896 -1.1999055404
H 2.5536747704 -0.3482734338 0.3514612618
H 1.0075094655 1.5611556994 0.0092792665
H 0.4895379887 0.5752424861 1.3972375862
H -1.0102747530 -1.1651230549 0.8690389510
H -1.8233559329 -1.1303830085 -0.7097420723
H -2.3783392165 -0.0647243615 0.6024767094
