12
CONF2
C 1.8520148714 -0.0719530427 -0.2544151120
C 0.5421313889 0.1687952819 0.4646905070
O -0.5215125780 -0.1515965899 -0.4245509977
C -1.7890109905 0.0443530465 0.1750760483
H 2.6945152855 0.1646140568 0.4021260251
H 1.9324065740 -1.1181899744 -0.5615967726
H 1.9188278944 0.5557056067 -1.1471996480
H 0.4597437782 1.2224779080 0.7840507226
H 0.4737776530 -0.4568620432 1.3718532105
H -1.9178481532 -0.5928537782 1.0647722234
H -2.5447159865 -0.2239843624 -0.5668757574
H -1.9369880099 1.0947046775 0.4736432694
12
CONF1
C 1.5575268663 -0.5268306649 -0.1110167360
C 0.6164571296 0.6016418162 0.2896432164
O -0.6609076439 0.5361165452 -0.3394241442
C -1.4624715582 -0.5349431906 0.1293907625
H 1.2236910691 -1.4970286948 0.2674994340
H 1.6361345144 -0.5858226691 -1.2007296110
H 2.5559289259 -0.3388360656 0.2973140788
H 1.0356243117 1.5650097655 -0.0188726990
H 0.4902866929 0.6249645342 1.3858361331
H -1.5536853206 -0.5159419367 1.2275610014
H -1.0708124897 -1.5166796201 -0.1743542061
H -2.4544117851 -0.4055401429 -0.3101821423
12
CONF3
C 1.5725398519 -0.4867994501 0.0632273526
C 0.5655249882 0.6491146772 0.1903653649
O -0.6502695253 0.4225165434 -0.5172140514
C -1.4485694709 -0.6008413223 0.0513336063
H 1.2351106928 -1.3952258032 0.5699126043
H 1.7500691938 -0.7207257002 -0.9906654752
H 2.5240974542 -0.1903318323 0.5162974058
H 0.9794038990 1.5656784851 -0.2425801728
H 0.3458941821 0.8485679791 1.2535022815
H -1.0037531484 -1.5986102991 -0.0726991895
H -2.4083677507 -0.5822020268 -0.4702182383
H -1.6232797410 -0.4238132779 1.1246812808
