20
 xtb: 6.7.1 (edcfbbe)
C           -3.66651091851731       -0.03356498085018       -0.01366990668926
C           -2.16468751621489       -0.02043247435412        0.00960862229851
C           -1.43347339983027       -1.21020964556375        0.00797836897439
C           -0.04396833554314       -1.19505060433257        0.00139932704817
C            0.65372894627500        0.01680379998205       -0.00140851577733
C           -0.07693641078252        1.21146666927198        0.00201117475163
C           -1.46103814513699        1.19074750723497        0.00906229322697
C            2.14433285793490        0.09103126875728       -0.00233847782159
O            2.71595056384544        1.16833057935895       -0.00567574636137
C            2.93220271889787       -1.20200737919816       -0.00223533387538
H           -4.06386455375300       -0.98750354542559        0.34180665413462
H           -4.07953453032598        0.76732182599783        0.60628243787189
H           -4.03684029576702        0.12108798844038       -1.03423748453629
H           -1.96045202779276       -2.16030885952877        0.01323647737940
H            0.49244665572778       -2.13794312808465        0.00255461569487
H            0.47130144072385        2.14757908760225        0.00383506470605
H           -2.01389715716334        2.12643339138660        0.01558471091636
H            2.69179501492457       -1.80351914759647        0.88114960518419
H            3.99605393453634       -0.96586835502702       -0.00373355998450
H            2.68985482762631       -1.80588074678914       -0.88352161363549
