16
CONF1
C 2.5100756322 1.1882056812 -0.0025437235
C 1.7190507367 -0.0977489310 -0.0003835426
O 2.2692857967 -1.1823024564 0.0016368511
C 0.2187039454 -0.0126595821 -0.0000821372
C -0.4781034967 1.1960583495 0.0011165739
C -1.8699581363 1.1673377585 0.0012816941
N -2.5865011656 0.0410180553 -0.0000517802
C -1.9098302298 -1.1144722291 -0.0013527016
C -0.5240821172 -1.1942336503 -0.0011924806
H 3.5734603478 0.9507439304 -0.0037539342
H 2.2689499426 1.7915036402 0.8794244471
H 2.2663888203 1.7900830117 -0.8847623047
H 0.0377077274 2.1498838978 0.0020704068
H -2.4354182595 2.0976962747 0.0022096571
H -2.5116327490 -2.0214805887 -0.0023021214
H -0.0087978434 -2.1483565118 -0.0020730707
