22
 xtb: 6.7.1 (edcfbbe)
C            1.54760731101480       -1.00330660684575        1.49007415488881
C            2.91718612300589       -1.14756425570733        1.63373633904618
C            3.77509403217707       -0.51373980656827        0.74187384590203
C            3.26850879680032        0.26718568400972       -0.30312893706550
C            1.87808135059291        0.39836154773941       -0.43354131302350
C            1.00926432866651       -0.23159048817193        0.46197697537080
C           -0.46153431381981       -0.07829738136259        0.34333013691895
C           -1.07166640567211        1.06960303195975        0.83766332263617
C           -2.44572328335057        1.23514419393777        0.75528651693027
C           -3.24699853968959        0.24573478835906        0.17508826894835
C           -2.64247614784965       -0.91656530249546       -0.32692213661169
C           -1.25270600992701       -1.07016557241369       -0.24213586166116
Cl          -0.49331493670109       -2.49212882010360       -0.88582878445845
Cl          -3.61122451158361       -2.15146308188851       -1.04899443079943
Cl          -4.95841016429730        0.45002260074760        0.07846679788568
Cl          -3.15067203900669        2.69121709274038        1.38639247054996
Cl           1.21680612902336        1.33936872182514       -1.73576990964772
Cl           4.33468348876511        1.05255569614940       -1.41314874443714
Cl           5.48948776979663       -0.70809730996088        0.94746982810537
H            0.87524542108388       -1.49961928253571        2.18134252298569
H            3.33194688520509       -1.74853677037457        2.43352041726735
H           -0.46483631322441        1.84721497279999        1.28596565588419
