14
CONF1
C 2.4623840961 -0.0000446409 -0.0081930288
C 0.9615170896 -0.0001327016 0.0112027309
C 0.2307756618 -1.1884651970 0.0078942432
C -1.1586660009 -1.1368493574 -0.0030060093
N -1.8614674452 0.0001117744 -0.0089125622
C -1.1584448118 1.1369975763 -0.0029554114
C 0.2309494296 1.1883754558 0.0078183485
H 2.8289752833 0.0065409875 -1.0412581448
H 2.8661674663 0.8850673434 0.4900445154
H 2.8662694668 -0.8911582511 0.4790574954
H 0.7389703143 -2.1485428518 0.0160288011
H -1.7378013765 -2.0592628464 -0.0044461945
H -1.7374429276 2.0594943695 -0.0046823618
H 0.7393255190 2.1483666437 0.0158248503
