10
 xtb: 6.7.1 (edcfbbe)
C            1.93398439111482       -0.08866057881401        0.01105094986187
C            0.68060885232213        0.34737460760691       -0.04935176207398
C           -0.53503530668079       -0.52818371895029        0.05083156837769
O           -1.68981813122118        0.31519774390762       -0.01288804869891
H            2.77161800714362        0.59450472023626       -0.07244658023758
H            2.16880835338150       -1.14206716279087        0.14522652435138
H            0.46757799087696        1.40592477770679       -0.18372680400121
H           -0.51400451136204       -1.09218423094335        0.99700524746848
H           -0.53880548171820       -1.25820294244769       -0.77455082379169
H           -2.47110852306229       -0.24359077414952        0.04503307419209
