10
CONF3
C -0.7108694081 -0.5903359807 -0.2800818468
C 0.6994696934 -0.6463141919 0.2676304079
O 1.3783704452 0.5150044989 -0.2343075785
O -1.4100009473 0.5589419222 0.1830202872
H -1.2729081274 -1.4656970057 0.0619861534
H -0.6724605592 -0.6141201544 -1.3811573690
H 1.1954775428 -1.5700810411 -0.0698590515
H 0.6671088679 -0.6362549591 1.3666780924
H 2.1914070950 0.6359322375 0.2645363194
H -0.8436096360 1.3150138406 -0.0159293604
