17
 xtb: 6.7.1 (edcfbbe)
C           -2.91622018515647        1.47243391089111        0.00065835343816
C           -1.81217498454472        0.45200015058695        0.00023092714992
C           -2.10907247694553       -0.91626752777376       -0.00031414604979
C           -1.10175991036366       -1.87473852015613       -0.00060101199122
C            0.23419247284303       -1.49119988681470       -0.00030699502884
C            0.51849486600953       -0.13324236187903        0.00015485023415
C           -0.47452025453697        0.83942731978027        0.00040820634431
N            1.93366738455757        0.29844314564967       -0.00003560347502
O            2.79224714584268       -0.57514300211375        0.00083953633609
O            2.15966188236363        1.50248732081114       -0.00124922240420
H           -3.55493744020314        1.35589271507515       -0.88095872154876
H           -3.55392458932506        1.35616815671728        0.88305093671828
H           -2.51830178356097        2.48913176338404        0.00029034318346
H           -3.14870885083331       -1.23218839065135       -0.00052783865086
H           -1.35693445005498       -2.92908651992390       -0.00109008703142
H            1.04049062722470       -2.21301420723147       -0.00054113541123
H           -0.19152976247883        1.88517368721079        0.00068505954875
