21
CONF1
C -1.8599241283 -2.1818143244 0.0000293368
C -1.3968618275 -0.7521072282 0.0000675535
C -2.3109279625 0.2795467563 0.0001341121
C -1.9057806933 1.6299467681 0.0000827726
C -0.5731661771 1.9524281773 -0.0000104193
C 0.4080295852 0.9323189142 -0.0000219094
C -0.0034798427 -0.4393963237 -0.0000006211
C 0.9995221039 -1.4399602170 -0.0000076550
C 2.3342917234 -1.1096409431 0.0000379591
C 2.7354478271 0.2410845720 0.0000444344
C 1.7901391419 1.2373741518 -0.0000095325
H -1.4958540380 -2.7208966462 0.8820324194
H -2.9508085944 -2.2333708973 0.0006258609
H -1.4968401879 -2.7204878602 -0.8826402994
H -3.3721643651 0.0469545305 0.0002320428
H -2.6581651428 2.4122200982 0.0001261939
H -0.2514484798 2.9898892501 -0.0000565039
H 0.7094989856 -2.4848118258 -0.0000422235
H 3.0855108204 -1.8930808788 0.0000718196
H 3.7918481490 0.4897118615 0.0000990531
H 2.0909821319 2.2814219128 -0.0000233551
