15
CONF1
C 0.6896590927 -1.4282516759 -0.1002603001
C 0.4495226381 0.0105349198 0.3356826800
C 1.6187822115 0.9102459040 -0.0174752832
O -0.7095538666 0.5842167311 -0.3112750599
C -1.9422068187 0.0021625081 0.1094331217
H 0.8285790643 -1.4787876049 -1.1860669158
H 1.5950743164 -1.8108248152 0.3810377901
H -0.1370285485 -2.0866027086 0.1802218430
H 0.2765431108 0.0382420571 1.4240245920
H 2.5275022508 0.5575290421 0.4784263958
H 1.4289879932 1.9398413517 0.3002645655
H 1.7924251030 0.9029083490 -1.0991803329
H -2.0633328270 -1.0258995197 -0.2564501519
H -2.7446204489 0.6164580391 -0.3077147476
H -2.0259567230 0.0019829640 1.2061793558
