7
CONF1
C 1.4048465316 0.0007275328 -0.0050158718
N -0.1010823775 0.0000120807 -0.0083956987
O -0.6549192297 -1.0879830513 0.0053569878
O -0.6560437589 1.0871439592 0.0053414297
H 1.7112970879 0.0018492014 1.0436711756
H 1.7471262726 0.9085274003 -0.4992111004
H 1.7481220952 -0.9075650651 -0.4976599909
