16
 xtb: 6.7.1 (edcfbbe)
C            2.48885024551903       -1.15544489330029        0.20877963165349
C            1.70350108416929        0.13359321458668        0.14324629401426
O            2.26489948396506        1.21383456268581        0.10088818144935
C            0.20949869766165        0.06077919586719        0.13287324163711
C           -0.52781487188328        1.24498586727097        0.04490917727136
C           -1.90998619922324        1.17420139765148        0.03228250017059
C           -2.51329178413021       -0.08053952720618        0.11027701465817
N           -1.83099437376670       -1.22595551341642        0.19799601306335
C           -0.49833449381835       -1.14308064931742        0.20757998732432
H            2.23499477437485       -1.80769373868805       -0.63332613913507
H            2.25497536668958       -1.70437074268311        1.12728304555266
H            3.55318998602893       -0.92269946950226        0.18470447456800
H            0.00396422027055        2.18915519304171       -0.01262623252600
H           -2.51831306330586        2.06980676612681       -0.03649460374770
H           -3.59848201238942       -0.16938937068926        0.10244220624296
H            0.02985087216140       -2.09193965568600        0.27933299165158
