16
CONF1
C -2.2853690677 -0.3223288004 -0.0852745014
C -1.8471970827 0.9959751939 -0.1598994093
C -0.4894923873 1.2858062235 -0.0567734278
C 0.4428255716 0.2655580758 0.1339866488
C -0.0046587012 -1.0558790344 0.2068614299
C -1.3597395074 -1.3473907194 0.0962787510
C 1.9129791469 0.5817513717 0.2698357192
O 2.7588433166 -0.3721943949 -0.3730908290
H -3.3426520386 -0.5511931316 -0.1724146577
H -2.5616415075 1.7995479894 -0.3087773306
H -0.1495452899 2.3160181559 -0.1265109680
H 0.7203100976 -1.8514528408 0.3480783699
H -1.6961948529 -2.3779387831 0.1539456418
H 2.1064884235 1.6003576957 -0.1007306793
H 2.2073683675 0.5584189694 1.3258565730
H 2.4705273371 -0.4399814138 -1.2911922574
