 xtb: 6.7.1 (edcfbbe)
          04152520093D

 16 16  0     0  0            999 V2000
    2.4724    0.6134    1.0428 C   0  0  0  0  0  0  0  0  0  0  0  0
    1.6891   -0.2120    0.0516 C   0  0  0  0  0  0  0  0  0  0  0  0
    2.2325   -0.9837   -0.7046 O   0  0  0  0  0  0  0  0  0  0  0  0
    0.2118   -0.0428    0.0444 C   0  0  0  0  0  0  0  0  0  0  0  0
   -0.4611    1.0298    0.6274 C   0  0  0  0  0  0  0  0  0  0  0  0
   -1.8436    1.0645    0.5640 C   0  0  0  0  0  0  0  0  0  0  0  0
   -2.5046    0.0298   -0.0834 C   0  0  0  0  0  0  0  0  0  0  0  0
   -1.8790   -0.9904   -0.6465 N   0  0  0  0  0  0  0  0  0  0  0  0
   -0.5639   -1.0226   -0.5842 C   0  0  0  0  0  0  0  0  0  0  0  0
    2.7094    1.5730    0.5843 H   0  0  0  0  0  0  0  0  0  0  0  0
    3.4086    0.1074    1.2642 H   0  0  0  0  0  0  0  0  0  0  0  0
    1.9195    0.7862    1.9605 H   0  0  0  0  0  0  0  0  0  0  0  0
    0.0780    1.8335    1.1069 H   0  0  0  0  0  0  0  0  0  0  0  0
   -2.3980    1.8792    1.0036 H   0  0  0  0  0  0  0  0  0  0  0  0
   -3.5840    0.0160   -0.1601 H   0  0  0  0  0  0  0  0  0  0  0  0
   -0.0777   -1.8696   -1.0501 H   0  0  0  0  0  0  0  0  0  0  0  0
  1  2  1  0  0  0  0
  2  3  2  0  0  0  0
  2  4  1  0  0  0  0
  4  5  4  0  0  0  0
  5  6  4  0  0  0  0
  6  7  4  0  0  0  0
  7  8  4  0  0  0  0
  4  9  4  0  0  0  0
  8  9  4  0  0  0  0
  1 10  1  0  0  0  0
  1 11  1  0  0  0  0
  1 12  1  0  0  0  0
  5 13  1  0  0  0  0
  6 14  1  0  0  0  0
  7 15  1  0  0  0  0
  9 16  1  0  0  0  0
M  END
