29
CONF2
C -3.6964795673 -0.2731102278 0.1262490822
C -2.2151154582 -0.2966197183 -0.2338588711
H -2.1128967659 -0.5680459588 -1.2946094762
C -1.4371226027 -1.3197781618 0.5929703435
C 0.0456534435 -1.3171921719 0.2312593287
C 0.6874251777 0.0709283248 0.4541919030
H 0.5159746740 0.3233911418 1.5142113516
C -0.1111009487 1.1099975317 -0.3045340969
O 0.4017503589 1.9215047185 -1.0709018984
C -1.5950540505 1.1020892769 -0.0458798365
C 2.2010542072 0.1332217701 0.1879806725
C 2.9824252603 -0.5515212210 1.3109614741
C 2.5981266679 -0.4504994857 -1.1705964542
H -3.8290785468 -0.0071619833 1.1817733218
H -4.2411208151 0.4600635878 -0.4782250459
H -4.1537334068 -1.2547980439 -0.0374920933
H -1.5604315548 -1.0868069390 1.6604370466
H -1.8577426610 -2.3189322588 0.4283576881
H 0.5877592592 -2.0575772304 0.8284032928
H 0.1589842382 -1.6045632040 -0.8210640157
H -1.7434833742 1.4034711213 1.0020568466
H -2.0775870615 1.8443020560 -0.6886594311
H 2.4757898248 1.1957282850 0.1913474007
H 2.7584157626 -1.6232343393 1.3584895533
H 2.7456999071 -0.1123162768 2.2862926727
H 4.0604272857 -0.4477025226 1.1466129167
H 3.6535381269 -0.2415272013 -1.3757549854
H 2.0063150155 -0.0281597218 -1.9885726927
H 2.4705336357 -1.5384881192 -1.1859786714
