29
CONF2
C -3.7025845195 0.2744434148 -0.1167985052
C -2.2169245779 0.2915700622 0.2333017681
H -2.1103213027 0.5645609125 1.2940047820
C -1.4435153198 1.3185827711 -0.5959354784
C 0.0432980736 1.3216896500 -0.2438234989
C 0.6891062633 -0.0618324145 -0.4663765236
H 0.5230133197 -0.3147013209 -1.5280212278
C -0.1017921859 -1.1095586344 0.3089803507
O 0.4143777705 -1.8994074044 1.0747912222
C -1.5956168681 -1.1047870722 0.0468777684
C 2.2019130354 -0.1271289251 -0.1946288874
C 2.9944446833 0.5617260357 -1.3083642480
C 2.5905635239 0.4378478365 1.1742465286
H -3.8440768760 0.0098970302 -1.1712721739
H -4.2450455818 -0.4582037046 0.4891584794
H -4.1580242312 1.2561548653 0.0492164732
H -1.5722058503 1.0873961960 -1.6638340407
H -1.8684881393 2.3167352864 -0.4348848068
H 0.5750601708 2.0707252492 -0.8406713543
H 0.1617679831 1.6115293726 0.8074941334
H -1.7541759863 -1.4158021046 -0.9972632082
H -2.0671659859 -1.8475734952 0.6967205244
H 2.4642277841 -1.1922470910 -0.1954872156
H 2.7813301027 1.6359612149 -1.3494204464
H 2.7635939697 0.1335053854 -2.2898863282
H 4.0703008829 0.4503924321 -1.1389696900
H 3.6477164292 0.2374407914 1.3755375002
H 2.0046128204 -0.0196310792 1.9755324024
H 2.4524919911 1.5242367855 1.2124061444
