 xtb: 6.7.1 (edcfbbe)
          04162509553D

 15 14  0     0  0            999 V2000
   -1.5811    0.9022    0.2738 C   0  0  0  0  0  0  0  0  0  0  0  0
   -1.3317   -0.5117   -0.2333 C   0  0  0  0  0  0  0  0  0  0  0  0
    0.0810   -0.9973   -0.3902 C   0  0  0  0  0  0  0  0  0  0  0  0
    1.2665   -0.4604   -0.1418 C   0  0  0  0  0  0  0  0  0  0  0  0
    1.6511    0.8747    0.4090 C   0  0  0  0  0  0  0  0  0  0  0  0
   -1.0911    1.6358   -0.3610 H   0  0  0  0  0  0  0  0  0  0  0  0
   -1.2353    1.0186    1.2978 H   0  0  0  0  0  0  0  0  0  0  0  0
   -2.6513    1.1042    0.2591 H   0  0  0  0  0  0  0  0  0  0  0  0
   -1.8430   -1.2176    0.4315 H   0  0  0  0  0  0  0  0  0  0  0  0
   -1.8083   -0.6157   -1.2151 H   0  0  0  0  0  0  0  0  0  0  0  0
    0.0906   -2.0029   -0.8003 H   0  0  0  0  0  0  0  0  0  0  0  0
    2.1310   -1.0711   -0.3819 H   0  0  0  0  0  0  0  0  0  0  0  0
    0.8176    1.4248    0.8239 H   0  0  0  0  0  0  0  0  0  0  0  0
    2.1071    1.4749   -0.3800 H   0  0  0  0  0  0  0  0  0  0  0  0
    2.4016    0.7395    1.1880 H   0  0  0  0  0  0  0  0  0  0  0  0
  1  2  1  0  0  0  0
  2  3  1  0  0  0  0
  3  4  2  0  0  0  0
  4  5  1  0  0  0  0
  1  6  1  0  0  0  0
  1  7  1  0  0  0  0
  1  8  1  0  0  0  0
  2  9  1  0  0  0  0
  2 10  1  0  0  0  0
  3 11  1  0  0  0  0
  4 12  1  0  0  0  0
  5 13  1  0  0  0  0
  5 14  1  0  0  0  0
  5 15  1  0  0  0  0
M  END
