24
 xtb: 6.7.1 (edcfbbe)
C           -3.60210740697448        0.12795810976904       -0.35754441565912
O           -2.22558697411200        0.17368312494417       -0.79157515308942
C           -1.31673107359598       -0.08738910844335        0.18091856578990
O           -1.62266976309170       -0.34484169594674        1.32307637412379
C            0.09916996976568        0.00605216982724       -0.33461897521615
C            0.86941352408841       -1.28187864365469       -0.00192995656625
C            2.32828468792200       -1.17811838833788       -0.44894868712117
C            3.01487498994541        0.03619703972554        0.17893763974680
C            2.25063662234884        1.32167443948749       -0.14312002038008
C            0.79139672972074        1.22527340898406        0.30434940992278
H           -4.19547872842006        0.33771031962453       -1.24729365162006
H           -3.78248541885533        0.88039515561161        0.41467334213312
H           -3.84145841358394       -0.85965504319879        0.04474847296023
H            0.06745200230651        0.14360151103399       -1.42191747577824
H            0.81780515388109       -1.44338219846653        1.08169457210818
H            0.38204489893184       -2.14013436146204       -0.47914899490841
H            2.86217444223913       -2.09799113036353       -0.18492941006897
H            2.36932524843096       -1.09133121350887       -1.54380212776280
H            3.05576556786782       -0.09606003969170        1.26887096754935
H            4.05040925616023        0.11161321056159       -0.17184986914862
H            2.72874466538376        2.18209792088545        0.33869645685339
H            2.28757222658772        1.50357687730394       -1.22625617707662
H            0.74035015681620        1.11690394539478        1.39516779320609
H            0.24825111374025        2.14088596150978        0.04248427453116
