 xtb: 6.7.1 (edcfbbe)
          04152520283D

 11 10  0     0  0            999 V2000
   -2.8442   -0.6130    0.0261 C   0  0  0  0  0  0  0  0  0  0  0  0
   -1.4991   -0.8836    0.4149 O   0  0  0  0  0  0  0  0  0  0  0  0
   -0.5440   -0.0694   -0.0440 C   0  0  0  0  0  0  0  0  0  0  0  0
   -0.7235    0.8735   -0.7569 O   0  0  0  0  0  0  0  0  0  0  0  0
    0.7982   -0.5450    0.4889 C   0  0  0  0  0  0  0  0  0  0  0  0
    2.1009    0.5265   -0.0497 Cl  0  0  0  0  0  0  0  0  0  0  0  0
   -3.4281   -0.4269    0.9272 H   0  0  0  0  0  0  0  0  0  0  0  0
   -3.2302   -1.4902   -0.4924 H   0  0  0  0  0  0  0  0  0  0  0  0
   -2.8743    0.2581   -0.6300 H   0  0  0  0  0  0  0  0  0  0  0  0
    1.0024   -1.5515    0.1221 H   0  0  0  0  0  0  0  0  0  0  0  0
    0.7803   -0.5520    1.5791 H   0  0  0  0  0  0  0  0  0  0  0  0
  1  2  1  0  0  0  0
  2  3  1  0  0  0  0
  3  4  2  0  0  0  0
  3  5  1  0  0  0  0
  5  6  1  0  0  0  0
  1  7  1  0  0  0  0
  1  8  1  0  0  0  0
  1  9  1  0  0  0  0
  5 10  1  0  0  0  0
  5 11  1  0  0  0  0
M  END
