27
 xtb: 6.7.1 (edcfbbe)
C            3.27346307362644       -0.49136169253873        0.78384085335189
C            1.92556215042150       -0.28988899486274        0.17002097068953
C            1.32553031507760        0.91594835513159        0.13635212269230
C           -0.02977144773252        1.13758079619327       -0.37858920085262
O           -0.53553398087511        2.25358710939283       -0.36258840665717
C           -0.80766066427379       -0.07636831136271       -0.86403589136192
H           -1.40965538057408        0.27385986663379       -1.71026316857158
C            0.14299909117125       -1.16372393854198       -1.37772832211842
C            1.25720105889890       -1.51078661545293       -0.39301882666162
C           -1.81795548581333       -0.55500198894911        0.22895471796274
C           -1.29979272271384       -0.46487342697430        1.66947812984981
C           -3.12753056900852        0.22926440741712        0.11319915378571
H            3.22430588623425       -1.26447331437801        1.56117349041076
H            3.66415922924810        0.42699705884570        1.22666214202375
H            3.98696349088210       -0.85298403616235        0.03305687925061
H            1.82018205045872        1.79663603638610        0.53914966853359
H           -0.42507369648598       -2.06246415670432       -1.64455557924890
H            0.61055327397262       -0.79793841574883       -2.30082731642722
H            0.87136056576198       -2.11516287492535        0.44150589735539
H            2.01235824481600       -2.14186696846245       -0.87914279624653
H           -2.02686427532059       -1.61177548196285        0.00769677023290
H           -2.03936272439373       -0.89248475520705        2.35395600724991
H           -1.14470021664214        0.57939436399333        1.96157142724859
H           -0.35835215908830       -0.99816849436681        1.82038515685739
H           -3.58739731627414        0.09244458893713       -0.87074493512205
H           -2.94289036361959        1.29925654564787        0.25262809332283
H           -3.84460571585409       -0.09959923109236        0.87300630235740
