 xtb: 6.7.1 (edcfbbe)
          04152520163D

 24 24  0     0  0            999 V2000
   -3.3943   -0.0359    0.1786 C   0  0  0  0  0  0  0  0  0  0  0  0
   -2.2230    0.1181   -0.6107 O   0  0  0  0  0  0  0  0  0  0  0  0
   -1.0497   -0.0390    0.0230 C   0  0  0  0  0  0  0  0  0  0  0  0
   -0.9732   -0.2931    1.1964 O   0  0  0  0  0  0  0  0  0  0  0  0
    0.0963    0.1575   -0.9465 C   0  0  0  0  0  0  0  0  0  0  0  0
    0.9734   -1.1004   -1.0288 C   0  0  0  0  0  0  0  0  0  0  0  0
    1.7767   -1.3221    0.2485 C   0  0  0  0  0  0  0  0  0  0  0  0
    2.6359   -0.1004    0.5549 C   0  0  0  0  0  0  0  0  0  0  0  0
    1.7444    1.1253    0.7223 C   0  0  0  0  0  0  0  0  0  0  0  0
    0.9431    1.3765   -0.5506 C   0  0  0  0  0  0  0  0  0  0  0  0
   -3.3179    0.5606    1.0899 H   0  0  0  0  0  0  0  0  0  0  0  0
   -3.5278   -1.0840    0.4547 H   0  0  0  0  0  0  0  0  0  0  0  0
   -4.2247    0.3033   -0.4354 H   0  0  0  0  0  0  0  0  0  0  0  0
   -0.3576    0.3422   -1.9257 H   0  0  0  0  0  0  0  0  0  0  0  0
    0.3453   -1.9706   -1.2329 H   0  0  0  0  0  0  0  0  0  0  0  0
    1.6596   -0.9776   -1.8708 H   0  0  0  0  0  0  0  0  0  0  0  0
    1.0932   -1.4959    1.0800 H   0  0  0  0  0  0  0  0  0  0  0  0
    2.4055   -2.2075    0.1321 H   0  0  0  0  0  0  0  0  0  0  0  0
    3.2105   -0.2695    1.4673 H   0  0  0  0  0  0  0  0  0  0  0  0
    3.3429    0.0674   -0.2623 H   0  0  0  0  0  0  0  0  0  0  0  0
    1.0601    0.9578    1.5546 H   0  0  0  0  0  0  0  0  0  0  0  0
    2.3497    2.0055    0.9495 H   0  0  0  0  0  0  0  0  0  0  0  0
    0.2939    2.2456   -0.4213 H   0  0  0  0  0  0  0  0  0  0  0  0
    1.6298    1.5910   -1.3736 H   0  0  0  0  0  0  0  0  0  0  0  0
  1  2  1  0  0  0  0
  2  3  1  0  0  0  0
  3  4  2  0  0  0  0
  3  5  1  0  0  0  0
  5  6  1  0  0  0  0
  6  7  1  0  0  0  0
  7  8  1  0  0  0  0
  8  9  1  0  0  0  0
  5 10  1  0  0  0  0
  9 10  1  0  0  0  0
  1 11  1  0  0  0  0
  1 12  1  0  0  0  0
  1 13  1  0  0  0  0
  5 14  1  0  0  0  0
  6 15  1  0  0  0  0
  6 16  1  0  0  0  0
  7 17  1  0  0  0  0
  7 18  1  0  0  0  0
  8 19  1  0  0  0  0
  8 20  1  0  0  0  0
  9 21  1  0  0  0  0
  9 22  1  0  0  0  0
 10 23  1  0  0  0  0
 10 24  1  0  0  0  0
M  END
