17
CONF1
C -2.4951359375 -1.1862222153 -0.0034043798
C -1.6972541157 0.0996545829 0.0003839615
O -2.2578821200 1.1817019710 0.0023690175
C -0.2033123261 0.0142881318 0.0000388643
C 0.5302701113 1.2066394514 -0.0015182190
C 1.9167715810 1.1780885942 -0.0017707180
C 2.5899506741 -0.0430948737 -0.0002425979
C 1.8704415197 -1.2343762237 0.0015676516
C 0.4799708758 -1.2067466567 0.0015394045
H -2.2565211429 -1.7895608492 -0.8860816650
H -3.5569979645 -0.9414071342 -0.0050821203
H -2.2601215106 -1.7919791929 0.8785775995
H -0.0154536679 2.1440789276 -0.0024690211
H 2.4780418215 2.1070627112 -0.0031853984
H 3.6752181239 -0.0656712155 -0.0004809352
H 2.3929377211 -2.1855880425 0.0029279352
H -0.0682689621 -2.1426378300 0.0029134761
17
CONF2
C -2.4888052340 0.8409267522 -0.8444162337
C -1.6997688371 -0.1872745685 -0.0631926289
O -2.2673255776 -1.0671960305 0.5603883682
C -0.2060686386 -0.0989869039 -0.0706910025
C 0.4860710820 0.8864588754 -0.7830226255
C 1.8759380908 0.9261220604 -0.7587652550
C 2.5860003678 -0.0171778172 -0.0221764682
C 1.9040738963 -1.0024479914 0.6908686522
C 0.5182290420 -1.0435261625 0.6664570828
H -2.2720371413 1.8522556679 -0.4840143521
H -3.5517832536 0.6316698691 -0.7270504239
H -2.2242654108 0.8089356245 -1.9068253089
H -0.0550548918 1.6276836584 -1.3610112055
H 2.4053381673 1.6934008626 -1.3143041374
H 3.6707795818 0.0146941500 -0.0030378774
H 2.4582860146 -1.7377668128 1.2653234531
H -0.0342069120 -1.8004275124 1.2126355504
