22
 xtb: 6.7.1 (edcfbbe)
C            3.35594738160224       -0.07350357087607        0.21408366589003
N            1.94244499175990        0.21583711694791        0.41672524423908
C            1.66270089937910        1.26012899020654        1.39321171040058
C            1.05700161004804       -0.20532925228446       -0.54418230662748
O            1.42289498845637       -0.76708336876929       -1.57242114963907
C           -0.40664213887063       -0.01969800299709       -0.27300945057122
C           -0.98616516014258       -0.37120119720278        0.94858117377472
C           -2.36395384379038       -0.28817593584899        1.11985588947880
C           -3.17011524435511        0.16146013683662        0.07784607427934
C           -2.59678926338230        0.50659843046982       -1.14390886352642
C           -1.22318614188309        0.40132642041426       -1.32413829210795
H            3.83701745270654       -0.20786704244337        1.18899739985186
H            3.86249955300740        0.74524106909346       -0.31659462469902
H            3.45744518202786       -0.98248369315280       -0.37886858945064
H            1.87020392559643        0.91075724515361        2.41316188360217
H            0.62138665950435        1.57480955707792        1.33409680062882
H            2.29855728955153        2.13479683430964        1.19652605866737
H           -0.35825717667935       -0.73262054038909        1.75763176673626
H           -2.80913798447922       -0.57946068992440        2.06595218616889
H           -4.24441060312463        0.23299791637758        0.21424075635082
H           -3.22433658689392        0.84743225796548       -1.96113508372605
H           -0.76645465923049        0.63193367588570       -2.28073748776592
