 xtb: 6.7.1 (edcfbbe)
          04152519433D

 12 11  0     0  0            999 V2000
   -1.9667    0.1669   -0.0090 C   0  0  0  0  0  0  0  0  0  0  0  0
   -0.6222   -0.5465   -0.0536 C   0  0  0  0  0  0  0  0  0  0  0  0
    0.5407    0.4458   -0.0841 C   0  0  0  0  0  0  0  0  0  0  0  0
    1.7958   -0.1842   -0.1896 O   0  0  0  0  0  0  0  0  0  0  0  0
   -2.7791   -0.5548    0.0215 H   0  0  0  0  0  0  0  0  0  0  0  0
   -2.0343    0.7992    0.8739 H   0  0  0  0  0  0  0  0  0  0  0  0
   -2.0947    0.7931   -0.8887 H   0  0  0  0  0  0  0  0  0  0  0  0
   -0.5657   -1.1800   -0.9411 H   0  0  0  0  0  0  0  0  0  0  0  0
   -0.5197   -1.1911    0.8247 H   0  0  0  0  0  0  0  0  0  0  0  0
    0.4642    1.0879   -0.9648 H   0  0  0  0  0  0  0  0  0  0  0  0
    0.5058    1.0841    0.8121 H   0  0  0  0  0  0  0  0  0  0  0  0
    1.8956   -0.7988    0.5460 H   0  0  0  0  0  0  0  0  0  0  0  0
  1  2  1  0  0  0  0
  2  3  1  0  0  0  0
  3  4  1  0  0  0  0
  1  5  1  0  0  0  0
  1  6  1  0  0  0  0
  1  7  1  0  0  0  0
  2  8  1  0  0  0  0
  2  9  1  0  0  0  0
  3 10  1  0  0  0  0
  3 11  1  0  0  0  0
  4 12  1  0  0  0  0
M  END
