8
CONF1
C -2.5696314403 -0.4493155209 -0.0000027752
C -1.5916885233 0.6958023298 0.0000014516
I 0.4933839104 -0.0218863043 -0.0000008933
H -2.4627317673 -1.0753139299 0.8892491302
H -3.5840352358 -0.0293919402 -0.0000125157
H -2.4627181975 -1.0753215798 -0.8892476972
H -1.6499789023 1.3139489964 0.8942961206
H -1.6499516304 1.3139322432 -0.8943074199
