 xtb: 6.7.1 (edcfbbe)
          04152520273D

 16 16  0     0  0            999 V2000
   -2.2761   -0.3229   -0.0811 C   0  0  0  0  0  0  0  0  0  0  0  0
   -1.8527    0.9955   -0.1111 C   0  0  0  0  0  0  0  0  0  0  0  0
   -0.5056    1.2949   -0.0167 C   0  0  0  0  0  0  0  0  0  0  0  0
    0.4320    0.2787    0.1152 C   0  0  0  0  0  0  0  0  0  0  0  0
    0.0004   -1.0406    0.1491 C   0  0  0  0  0  0  0  0  0  0  0  0
   -1.3467   -1.3402    0.0490 C   0  0  0  0  0  0  0  0  0  0  0  0
    1.9016    0.6040    0.2293 C   0  0  0  0  0  0  0  0  0  0  0  0
    2.7519   -0.4174   -0.2346 O   0  0  0  0  0  0  0  0  0  0  0  0
   -3.3278   -0.5555   -0.1587 H   0  0  0  0  0  0  0  0  0  0  0  0
   -2.5742    1.7930   -0.2125 H   0  0  0  0  0  0  0  0  0  0  0  0
   -0.1765    2.3242   -0.0438 H   0  0  0  0  0  0  0  0  0  0  0  0
    0.7297   -1.8303    0.2590 H   0  0  0  0  0  0  0  0  0  0  0  0
   -1.6709   -2.3702    0.0755 H   0  0  0  0  0  0  0  0  0  0  0  0
    2.1114    1.5496   -0.2941 H   0  0  0  0  0  0  0  0  0  0  0  0
    2.1646    0.7397    1.2844 H   0  0  0  0  0  0  0  0  0  0  0  0
    2.5217   -0.6175   -1.1489 H   0  0  0  0  0  0  0  0  0  0  0  0
  1  2  4  0  0  0  0
  2  3  4  0  0  0  0
  3  4  4  0  0  0  0
  4  5  4  0  0  0  0
  1  6  4  0  0  0  0
  5  6  4  0  0  0  0
  4  7  1  0  0  0  0
  7  8  1  0  0  0  0
  1  9  1  0  0  0  0
  2 10  1  0  0  0  0
  3 11  1  0  0  0  0
  5 12  1  0  0  0  0
  6 13  1  0  0  0  0
  7 14  1  0  0  0  0
  7 15  1  0  0  0  0
  8 16  1  0  0  0  0
M  END
