 xtb: 6.7.1 (edcfbbe)
          04152519513D

 10  9  0     0  0            999 V2000
   -0.6114    0.0199    0.4636 C   0  0  0  0  0  0  0  0  0  0  0  0
    0.6115   -0.0019   -0.4641 C   0  0  0  0  0  0  0  0  0  0  0  0
    1.8237    0.0479    0.2425 O   0  0  0  0  0  0  0  0  0  0  0  0
   -1.8238    0.0227   -0.2445 O   0  0  0  0  0  0  0  0  0  0  0  0
   -0.6074    0.9361    1.0579 H   0  0  0  0  0  0  0  0  0  0  0  0
   -0.5630   -0.8414    1.1509 H   0  0  0  0  0  0  0  0  0  0  0  0
    0.6017    0.8799   -1.1083 H   0  0  0  0  0  0  0  0  0  0  0  0
    0.5687   -0.9003   -1.1027 H   0  0  0  0  0  0  0  0  0  0  0  0
    1.8615   -0.6921    0.8593 H   0  0  0  0  0  0  0  0  0  0  0  0
   -1.8568   -0.7506   -0.8194 H   0  0  0  0  0  0  0  0  0  0  0  0
  1  2  1  0  0  0  0
  2  3  1  0  0  0  0
  1  4  1  0  0  0  0
  1  5  1  0  0  0  0
  1  6  1  0  0  0  0
  2  7  1  0  0  0  0
  2  8  1  0  0  0  0
  3  9  1  0  0  0  0
  4 10  1  0  0  0  0
M  END
