13
 xtb: 6.7.1 (edcfbbe)
C           -0.73258922030087       -1.20941665340781       -0.00002245020769
C            0.65977282220295       -1.21313788365965       -0.00000818540057
C            1.32957229356861       -0.00249955023531        0.00001437877130
C            0.65608599793853        1.20863319990195        0.00003196248391
C           -0.73324269375695        1.20766478377341        0.00001536138459
C           -1.42924544910972       -0.00095536971050       -0.00001819107854
O           -2.79671418697499        0.06496619074561       -0.00003962230970
F            2.68459430626559       -0.00096450612063        0.00002317175773
H           -1.27306613180740       -2.15266752740534       -0.00003369033976
H            1.21974631074640       -2.14150860616360       -0.00001108941663
H            1.21691542106174        2.13661329465468        0.00005626077312
H           -1.29044021702939        2.13792655880082        0.00002620853914
H           -3.15736492358593       -0.82827520886808       -0.00012428430386
