17
CONF3
C 2.4093249967 1.1085413793 -0.0008079026
C 1.1554703871 0.2814297370 0.0002310020
C 1.1970318556 -1.1147239971 -0.0009440255
C -0.0000325838 -1.8181092861 -0.0002076606
C -1.1969632784 -1.1146738292 0.0021336724
C -1.1553070673 0.2815701881 0.0029097381
N 0.0000674072 0.9599846093 0.0022927614
C -2.4093795438 1.1083757582 -0.0023831491
H 3.3060168026 0.4848772141 0.0133601159
H 2.4365592845 1.7481469572 -0.8886190650
H 2.4231015768 1.7709358154 0.8702072426
H 2.1493501590 -1.6348841893 -0.0014514317
H -0.0000643199 -2.9040481870 -0.0002034363
H -2.1493490915 -1.6347300694 0.0036332831
H -2.3914112468 1.8236374969 0.8250952333
H -2.4709280636 1.6911896454 -0.9273233389
H -3.3042131405 0.4874374406 0.0809626750
