 xtb: 6.7.1 (edcfbbe)
          04152520323D

 27 27  0     0  0            999 V2000
    3.6888   -0.2864    0.1399 C   0  0  0  0  0  0  0  0  0  0  0  0
    2.2060   -0.1846    0.0037 C   0  0  0  0  0  0  0  0  0  0  0  0
    1.5656    0.9883   -0.0353 C   0  0  0  0  0  0  0  0  0  0  0  0
    0.1198    1.1311   -0.2147 C   0  0  0  0  0  0  0  0  0  0  0  0
   -0.4141    2.2206   -0.2442 O   0  0  0  0  0  0  0  0  0  0  0  0
   -0.6494   -0.1680   -0.4248 C   0  0  0  0  0  0  0  0  0  0  0  0
   -0.5343   -0.3961   -1.4949 H   0  0  0  0  0  0  0  0  0  0  0  0
    0.0098   -1.2944    0.3697 C   0  0  0  0  0  0  0  0  0  0  0  0
    1.4523   -1.4757   -0.0902 C   0  0  0  0  0  0  0  0  0  0  0  0
   -2.1512    0.0291   -0.1524 C   0  0  0  0  0  0  0  0  0  0  0  0
   -2.9868   -1.0951   -0.7592 C   0  0  0  0  0  0  0  0  0  0  0  0
   -2.4521    0.1767    1.3373 C   0  0  0  0  0  0  0  0  0  0  0  0
    3.9442   -0.7607    1.0877 H   0  0  0  0  0  0  0  0  0  0  0  0
    4.1586    0.6925    0.1015 H   0  0  0  0  0  0  0  0  0  0  0  0
    4.0959   -0.9084   -0.6567 H   0  0  0  0  0  0  0  0  0  0  0  0
    2.1098    1.9193    0.0480 H   0  0  0  0  0  0  0  0  0  0  0  0
    0.0064   -1.0449    1.4321 H   0  0  0  0  0  0  0  0  0  0  0  0
   -0.5430   -2.2249    0.2337 H   0  0  0  0  0  0  0  0  0  0  0  0
    1.9521   -2.2423    0.5066 H   0  0  0  0  0  0  0  0  0  0  0  0
    1.4671   -1.8148   -1.1325 H   0  0  0  0  0  0  0  0  0  0  0  0
   -2.4284    0.9686   -0.6430 H   0  0  0  0  0  0  0  0  0  0  0  0
   -4.0455   -0.8854   -0.6257 H   0  0  0  0  0  0  0  0  0  0  0  0
   -2.7702   -2.0468   -0.2785 H   0  0  0  0  0  0  0  0  0  0  0  0
   -2.7912   -1.1934   -1.8251 H   0  0  0  0  0  0  0  0  0  0  0  0
   -1.8287    0.9528    1.7744 H   0  0  0  0  0  0  0  0  0  0  0  0
   -2.2813   -0.7574    1.8679 H   0  0  0  0  0  0  0  0  0  0  0  0
   -3.4930    0.4591    1.4775 H   0  0  0  0  0  0  0  0  0  0  0  0
  1  2  1  0  0  0  0
  2  3  2  0  0  0  0
  3  4  1  0  0  0  0
  4  5  2  0  0  0  0
  4  6  1  0  0  0  0
  6  7  1  0  0  0  0
  6  8  1  0  0  0  0
  2  9  1  0  0  0  0
  8  9  1  0  0  0  0
  6 10  1  0  0  0  0
 10 11  1  0  0  0  0
 10 12  1  0  0  0  0
  1 13  1  0  0  0  0
  1 14  1  0  0  0  0
  1 15  1  0  0  0  0
  3 16  1  0  0  0  0
  8 17  1  0  0  0  0
  8 18  1  0  0  0  0
  9 19  1  0  0  0  0
  9 20  1  0  0  0  0
 10 21  1  0  0  0  0
 11 22  1  0  0  0  0
 11 23  1  0  0  0  0
 11 24  1  0  0  0  0
 12 25  1  0  0  0  0
 12 26  1  0  0  0  0
 12 27  1  0  0  0  0
M  END
