26
CONF5
C -4.4432730957 -1.2135517538 -0.3678459380
N -3.3445996924 -0.7413021221 0.4353895305
C -2.2336556131 -0.1989014530 -0.1073325402
O -2.0069763160 -0.0883039161 -1.2830121227
O -1.3941438243 0.2033690741 0.8880821392
C -0.1838697342 0.7716568305 0.4851442119
C -0.0914286595 2.1303413514 0.3542290235
C 1.1274509300 2.7189599482 -0.0115175938
C 2.2260832863 1.9430537506 -0.2489739613
C 2.1573465858 0.5394199573 -0.1288214713
C 0.9304011491 -0.0687439319 0.2465790019
C 0.8653304684 -1.4718400609 0.3656096738
C 1.9666540115 -2.2420805748 0.1176069405
C 3.1804480028 -1.6453356378 -0.2554309825
C 3.2736436212 -0.2870771315 -0.3743353847
H -4.6467871592 -2.2659039069 -0.1614803702
H -4.1544480716 -1.0994230292 -1.4112096897
H -5.3462325986 -0.6294208648 -0.1774170046
H -3.4270482009 -0.7505570529 1.4389107705
H -0.9621529402 2.7433767760 0.5308967203
H 1.1817117815 3.7927332355 -0.1102149016
H 3.1649379834 2.3929886952 -0.5377786104
H -0.0698956809 -1.9281317102 0.6551931349
H 1.9097386050 -3.3169363068 0.2077218070
H 4.0405278445 -2.2699900298 -0.4478369781
H 4.2066503343 0.1768565146 -0.6609425682
26
CONF4
C -4.3239724836 -1.3979156013 -0.3183678355
N -3.3110433155 -0.7160932564 0.4461960453
C -2.1755569378 -0.2478188910 -0.1155369271
O -1.8458738944 -0.3956340208 -1.2622992287
O -1.4522387951 0.4229045077 0.8256714350
C -0.2009411136 0.9017414611 0.4390092005
C -0.0307631291 2.2528859355 0.3012045838
C 1.2232803475 2.7719976888 -0.0490106805
C 2.2796690751 1.9347484747 -0.2689465742
C 2.1335610721 0.5384892108 -0.1337945699
C 0.8723040474 -0.0003329134 0.2356946358
C 0.7419403816 -1.3953262532 0.3923000664
C 1.8071871155 -2.2229776071 0.1733195130
C 3.0503825791 -1.6954484860 -0.2060872012
C 3.2102260590 -0.3462514590 -0.3518730182
H -5.2476587305 -0.8161990963 -0.3539747213
H -4.5340032179 -2.3781525350 0.1131840669
H -3.9386937560 -1.5224394804 -1.3288876852
H -3.4920374099 -0.4867843956 1.4099836409
H -0.8697872412 2.9125604775 0.4618432572
H 1.3378743546 3.8405715786 -0.1526449048
H 3.2450740859 2.3296078411 -0.5506126481
H -0.2123113801 -1.8052171849 0.6886934399
H 1.6978307521 -3.2909115641 0.2921430869
H 3.8801387018 -2.3653450070 -0.3783881262
H 4.1672576642 0.0663470271 -0.6378537055
26
CONF1
C -4.7672155017 -0.8511301758 0.1335494817
N -3.3995214859 -0.9084088246 -0.3146571513
C -2.4652110031 -0.0224048465 0.0929574978
O -2.6605296049 0.9038874590 0.8344788174
O -1.2681804173 -0.3644982550 -0.4597540592
C -0.1503744044 0.4358772131 -0.2711611675
C -0.2044334809 1.8040453395 -0.2973798728
C 0.9715554655 2.5535261912 -0.1466445034
C 2.1788399399 1.9365834591 0.0141930744
C 2.2669294816 0.5288676844 0.0348135156
C 1.0853678798 -0.2440387344 -0.1068427531
C 1.1766955279 -1.6503239137 -0.0781665765
C 2.3860340243 -2.2670255349 0.0823957725
C 3.5567826236 -1.5063636329 0.2188576428
C 3.4976607609 -0.1411455234 0.1960553620
H -4.8578616982 0.0112961752 0.7915585083
H -5.0341561132 -1.7551256238 0.6846271404
H -5.4459900497 -0.7333602036 -0.7132740455
H -3.1142500518 -1.6519331879 -0.9309492511
H -1.1487720910 2.3086995990 -0.4205527529
H 0.9050449133 3.6309602995 -0.1639760721
H 3.0837828475 2.5154944603 0.1281004698
H 0.2715268880 -2.2287476704 -0.1844509463
H 2.4479690341 -3.3452087442 0.1056643685
H 4.5045367791 -2.0095549212 0.3435252750
H 4.3963509295 0.4496167367 0.3019918563
26
CONF2
C -4.7749082743 -0.9521126483 0.0042256397
N -3.3389726867 -1.0476389083 0.0600981773
C -2.5346235886 0.0371591441 -0.0129834139
O -2.9237489330 1.1706639412 -0.1249765099
O -1.2463259485 -0.3862478355 0.0589250146
C -0.1396407877 0.4459107572 0.0304434567
C -0.1785280600 1.8152930174 0.0354442179
C 1.0168216279 2.5502554100 0.0156553860
C 2.2291463527 1.9244764009 -0.0049327260
C 2.3036149161 0.5156552647 -0.0073240706
C 1.1061474531 -0.2445429153 0.0095812247
C 1.1905514548 -1.6514554454 0.0060204423
C 2.4048688206 -2.2795857662 -0.0122116758
C 3.5900932325 -1.5303058288 -0.0276581264
C 3.5389848949 -0.1646461880 -0.0257106344
H -5.0278041693 0.1037629868 -0.0740076374
H -5.2245804602 -1.3660587035 0.9087966182
H -5.1660171706 -1.4823564762 -0.8664593908
H -2.9107162045 -1.9547980271 0.1464850183
H -1.1216338590 2.3344737627 0.0499600728
H 0.9572802167 3.6283517652 0.0181723482
H 3.1466598859 2.4944102476 -0.0192598576
H 0.2761966746 -2.2243009031 0.0179723184
H 2.4585272094 -3.3585148021 -0.0147263121
H 4.5416216584 -2.0415855407 -0.0414490386
H 4.4481529703 0.4192849165 -0.0378817336
26
CONF3
C -3.5595329656 -1.7770291689 -0.7164249467
N -3.5949000591 -0.5588635492 0.0552027994
C -2.5388649974 0.2322955104 0.3525793969
O -2.6170430807 1.1933637301 1.0748846350
O -1.4128658209 -0.2036848168 -0.2647226499
C -0.2397154540 0.5322457826 -0.1883666499
C -0.2119355291 1.8981779801 -0.2800458896
C 1.0156441753 2.5758251932 -0.2441149815
C 2.1907221903 1.8898125186 -0.1308711117
C 2.1934497041 0.4817801665 -0.0450376624
C 0.9596489394 -0.2185181406 -0.0709585092
C 0.9650203284 -1.6250788632 0.0220302794
C 2.1421028478 -2.3109260594 0.1347149114
C 3.3642075555 -1.6224664645 0.1571575019
C 3.3884424769 -0.2587532726 0.0699097280
H -4.4840626024 -1.8702404722 -1.2852929373
H -3.4485109944 -2.6553053737 -0.0732226029
H -2.7193987441 -1.7367157224 -1.4056100106
H -4.4373098745 -0.3494832752 0.5678726984
H -1.1301628953 2.4560166909 -0.3660608838
H 1.0148231330 3.6533415954 -0.3111387953
H 3.1351786033 2.4136098570 -0.1049416510
H 0.0207404682 -2.1479185729 0.0041979493
H 2.1387988745 -3.3886557150 0.2078560411
H 4.2852365720 -2.1800051357 0.2455964508
H 4.3270970633 0.2764465717 0.0881156943
26
CONF6
C -3.9860552352 -0.8548889858 1.0451194238
N -3.3194215216 -0.9370666519 -0.2313077121
C -2.1504648474 -0.3437599684 -0.5626203717
O -1.6823253750 -0.3676028260 -1.6722882773
O -1.5728480725 0.2616785045 0.5070831290
C -0.3051034208 0.8067576501 0.3091580951
C -0.1744789840 2.1686717633 0.2777066332
C 1.0915774140 2.7498125837 0.1215997180
C 2.2000409014 1.9633755403 -0.0131024937
C 2.0948114543 0.5571912376 0.0159153209
C 0.8200560206 -0.0450997721 0.1878018024
C 0.7260819363 -1.4508480977 0.2376293440
C 1.8424732278 -2.2277830023 0.1042680400
C 3.1014156629 -1.6367950207 -0.0791617810
C 3.2246105192 -0.2764527626 -0.1183611235
H -4.7728121515 -0.0950380758 1.0361325917
H -3.2560326578 -0.5952727008 1.8075209946
H -4.4299249250 -1.8209494042 1.2863039493
H -3.8369835808 -1.3151930998 -1.0096154738
H -1.0529174793 2.7888961194 0.3706914905
H 1.1750558467 3.8260082136 0.0987077122
H 3.1762665418 2.4069900116 -0.1451515729
H -0.2410643325 -1.9095709321 0.3819167153
H 1.7617027925 -3.3042376230 0.1397877777
H 3.9721895600 -2.2670787165 -0.1860878105
H 4.1927365588 0.1842963760 -0.2538404528
26
CONF7
C -3.8925369069 -1.2040898638 -1.0206631635
N -3.4151392639 -0.7779399869 0.2716518172
C -2.2666011878 -0.1136389019 0.5273422137
O -1.9561889316 0.2836896229 1.6214672465
O -1.5055450524 0.0285036169 -0.5879315579
C -0.2739044628 0.6626063797 -0.4182402662
C -0.1921553834 2.0231333970 -0.5334267207
C 1.0494198900 2.6633345736 -0.4111205295
C 2.1810410912 1.9380178631 -0.1688242606
C 2.1238856499 0.5349431120 -0.0358060687
C 0.8736237345 -0.1259007045 -0.1613706765
C 0.8174924792 -1.5276023697 -0.0228266280
C 1.9513033762 -2.2458625244 0.2345974251
C 3.1891086934 -1.5970292492 0.3590177064
C 3.2734319096 -0.2394683232 0.2254368795
H -4.6957447669 -0.5537915490 -1.3784152137
H -4.2678583007 -2.2263732323 -0.9566402000
H -3.0690216895 -1.1685335580 -1.7289614001
H -4.0417698474 -0.8596278700 1.0571914246
H -1.0870661567 2.5986911595 -0.7152383560
H 1.0958205949 3.7378198598 -0.5058662875
H 3.1381690463 2.4292536665 -0.0694578065
H -0.1370958916 -2.0235806511 -0.1202059134
H 1.9015485946 -3.3191913564 0.3447860620
H 4.0748281159 -2.1810038079 0.5625345986
H 4.2248269069 0.2641188178 0.3208667909
26
CONF11
C -3.4319591657 -0.3645139697 1.7290143186
N -2.3395429845 -0.0606120395 0.8385113900
C -2.4086508038 -0.3125554802 -0.4900900603
O -3.3535187650 -0.8082079056 -1.0412855560
O -1.3065107563 0.0229427191 -1.2103785248
C -0.2137611394 0.6408612083 -0.6224135843
C -0.2034205399 2.0012465912 -0.4423780435
C 0.9261200520 2.6311880630 0.0993405997
C 2.0233789223 1.8995207891 0.4574013197
C 2.0445035586 0.4993964237 0.2849148072
C 0.9087843427 -0.1512777545 -0.2652496560
C 0.9275187060 -1.5503227235 -0.4392072128
C 2.0282202767 -2.2771071242 -0.0808115200
C 3.1533081264 -1.6390481256 0.4641321414
C 3.1620153687 -0.2838890700 0.6424162572
H -4.2325239163 -0.7928630128 1.1287190079
H -3.7916199184 0.5419196185 2.2198975373
H -3.1216780818 -1.0856875436 2.4874751901
H -1.5023867924 0.3428597010 1.2297131697
H -1.0681717053 2.5811086037 -0.7281934819
H 0.9154420682 3.7027983423 0.2287613802
H 2.8936630339 2.3834873880 0.8755420764
H 0.0601813749 -2.0303481816 -0.8674585084
H 2.0394766812 -3.3481826904 -0.2168633300
H 4.0144967521 -2.2294990645 0.7399974024
H 4.0274532314 0.2109541778 1.0589296897
26
CONF10
C -3.5950629342 -0.4945260070 -1.5355746034
N -2.4374133236 -0.1269287629 -0.7586044635
C -2.4265423199 -0.2169834456 0.5925558315
O -3.3590833468 -0.5754136204 1.2590248849
O -1.2542079810 0.1140054245 1.1948867779
C -0.1972891022 0.6623481660 0.4870959872
C -0.2409992438 1.9667478868 0.0617053950
C 0.8589644559 2.5277489462 -0.6023946005
C 1.9812685136 1.7840710705 -0.8371405745
C 2.0575902252 0.4407254336 -0.4131067690
C 0.9525143072 -0.1390986960 0.2638112230
C 1.0248969948 -1.4819337490 0.6872939983
C 2.1478227171 -2.2231063334 0.4472673349
C 3.2431386670 -1.6551215027 -0.2218787209
C 3.2000939233 -0.3548851672 -0.6411685302
H -4.3872447980 -0.7565558424 -0.8367356064
H -3.3774916475 -1.3532013850 -2.1740403439
H -3.9194090108 0.3424437802 -2.1564277031
H -1.5941229748 0.1267566438 -1.2499095335
H -1.1250524117 2.5580077517 0.2488818221
H 0.8059330511 3.5568740791 -0.9238934670
H 2.8288494594 2.2153658888 -1.3490733670
H 0.1792360039 -1.9047878733 1.2085999255
H 2.1999686601 -3.2512059651 0.7730164434
H 4.1227378373 -2.2556255548 -0.4013458070
H 4.0425514439 0.0862427073 -1.1540876460
26
CONF8
C -3.0021031423 -1.0212960618 1.7429917344
N -2.1304787994 -0.2905489798 0.8574968519
C -2.3171775293 -0.2810009176 -0.4838255553
O -3.2151930925 -0.8427937041 -1.0499665914
O -1.4180658068 0.4511683313 -1.1947274306
C -0.2381331051 0.8993870433 -0.6262345128
C -0.0443095609 2.2497933530 -0.4849733912
C 1.1605060304 2.7397394132 0.0383731571
C 2.1488958560 1.8787388309 0.4233152677
C 1.9857438599 0.4842741777 0.2823493125
C 0.7769171337 -0.0268013626 -0.2607011213
C 0.6313471491 -1.4200692447 -0.4267328124
C 1.6337549919 -2.2720754756 -0.0550860088
C 2.8220746912 -1.7722085372 0.4984989072
C 2.9951695969 -0.4261176719 0.6596035761
H -3.4910486463 -0.3462185681 2.4476626350
H -2.4400489977 -1.7754927994 2.2974211407
H -3.7565927963 -1.5094567695 1.1288478718
H -1.3715692276 0.2348749805 1.2627551010
H -0.8273075658 2.9279758664 -0.7867391175
H 1.2923028796 3.8063550867 0.1384746229
H 3.0748374120 2.2524314931 0.8349233489
H -0.2772139386 -1.8058810137 -0.8653077883
H 1.5167656348 -3.3369147654 -0.1895699417
H 3.6017712418 -2.4605988712 0.7891711795
H 3.9123818399 -0.0352095499 1.0758368652
26
CONF9
C -3.8918282797 -0.0610638409 -1.4234885942
N -2.6188970235 0.0276780315 -0.7519150444
C -2.4870873752 -0.2569011370 0.5654928342
O -3.3922639218 -0.5802293986 1.2857071889
O -1.2198005477 -0.1994906867 1.0565059472
C -0.1984796596 0.4733481248 0.4146435900
C -0.3236055860 1.7876648754 0.0363759624
C 0.7564034958 2.4560672595 -0.5569712449
C 1.9442209450 1.8130542104 -0.7633199723
C 2.1088372151 0.4663102728 -0.3772136246
C 1.0236447054 -0.2234600264 0.2240010183
C 1.1864248164 -1.5693248420 0.6105744859
C 2.3778400132 -2.2080696858 0.4089540172
C 3.4542389337 -1.5307521894 -0.1846884041
C 3.3233375977 -0.2255217076 -0.5685643022
H -3.8835812716 -0.8566344727 -2.1711797579
H -4.1320519892 0.8862480462 -1.9092503388
H -4.6441440731 -0.2843553191 -0.6693528845
H -1.7982315786 0.2065869596 -1.3096839175
H -1.2546406096 2.3083461339 0.2069566978
H 0.6350283474 3.4896414845 -0.8440846379
H 2.7762668287 2.3283489023 -1.2199262965
H 0.3528221207 -2.0756255224 1.0728254157
H 2.4990503459 -3.2388180654 0.7069229168
H 4.3890544215 -2.0506858522 -0.3344368321
H 4.1506089594 0.2999698469 -1.0235312524
