 xtb: 6.7.1 (edcfbbe)
          04162510203D

 12 11  0     0  0            999 V2000
   -1.9580    0.4590   -0.0626 C   0  0  0  0  0  0  0  0  0  0  0  0
   -0.8908   -0.6108    0.1248 C   0  0  0  0  0  0  0  0  0  0  0  0
    0.5598   -0.1664    0.0242 C   0  0  0  0  0  0  0  0  0  0  0  0
    1.4746   -0.9497    0.1558 O   0  0  0  0  0  0  0  0  0  0  0  0
    0.7797    1.1454   -0.2189 N   0  0  0  0  0  0  0  0  0  0  0  0
   -2.9429    0.0066    0.0321 H   0  0  0  0  0  0  0  0  0  0  0  0
   -1.8768    1.2360    0.6954 H   0  0  0  0  0  0  0  0  0  0  0  0
   -1.8955    0.9112   -1.0508 H   0  0  0  0  0  0  0  0  0  0  0  0
   -1.0222   -1.4029   -0.6162 H   0  0  0  0  0  0  0  0  0  0  0  0
   -1.0016   -1.0807    1.1051 H   0  0  0  0  0  0  0  0  0  0  0  0
    0.0390    1.8115   -0.3313 H   0  0  0  0  0  0  0  0  0  0  0  0
    1.7326    1.4608   -0.2892 H   0  0  0  0  0  0  0  0  0  0  0  0
  1  2  1  0  0  0  0
  2  3  1  0  0  0  0
  3  4  2  0  0  0  0
  3  5  4  0  0  0  0
  1  6  1  0  0  0  0
  1  7  1  0  0  0  0
  1  8  1  0  0  0  0
  2  9  1  0  0  0  0
  2 10  1  0  0  0  0
  5 11  1  0  0  0  0
  5 12  1  0  0  0  0
M  END
