12
 xtb: 6.7.1 (edcfbbe)
C           -1.80879116466854        0.04308830706505        0.99200573828948
C           -0.95811077170741       -0.33930774003150       -0.20991248022819
H           -1.04139327895630       -1.41940526859775       -0.41355947812399
C            0.52290078597253       -0.09124374186891        0.06088178303830
F            0.78152280732841        1.19664086665465        0.36643088202414
F            0.92971440180025       -0.84921862806381        1.11104088726615
F            1.28734431401429       -0.42291090241877       -0.99705899153493
O           -1.26662515430620        0.42424902684507       -1.36795799839232
H           -2.85912019602628       -0.18400713056343        0.78417635185682
H           -1.71388571677618        1.11224190488595        1.19724630397708
H           -1.51343411916619       -0.52209406863337        1.87971615231348
H           -2.21760736766840        0.37465809739164       -1.51094452204491
