14
CONF1
C 2.2090361781 0.4566532987 0.1285040795
C 1.2168685729 -0.6045196990 -0.3337847530
C -0.1313179786 -0.5580396225 0.3670593186
H 0.0051119867 -0.5207238899 1.4526926764
C -1.0483753238 -1.7000692370 -0.0216187113
Cl -0.9815425908 1.0358827764 -0.0301578387
H 3.1649576042 0.3418994036 -0.3898314454
H 2.3978297402 0.3745252706 1.2040681817
H 1.8307061569 1.4617838131 -0.0731282533
H 1.6307037300 -1.6043411554 -0.1406993824
H 1.0542445802 -0.5357049026 -1.4158758883
H -1.2112383339 -1.7139521103 -1.1028825166
H -0.5847783648 -2.6490548605 0.2715322712
H -2.0169732644 -1.6200450693 0.4759347095
