25
CONF1
C 1.5920857255 1.5235001610 1.3143884244
C 0.2567616885 0.7792778685 1.4234165927
H -0.2064251382 1.1333729245 2.3487858494
C 0.2561793492 -0.7785628846 1.4239016838
H -0.2067969043 -1.1318986382 2.3496553892
C 1.5911637057 -1.5233943395 1.3145582474
O 2.3069472475 -1.2551380048 0.1428504162
S 3.4004021199 -0.0005924179 0.2158213812
O 3.9029320192 -0.0006711810 1.5623011439
O 2.3079003052 1.2550281650 0.1427762203
C -0.7114568082 -1.1150883338 0.2548878069
C -0.0754724849 -0.6712301573 -1.0483962999
C -0.0747699728 0.6700895216 -1.0489029231
C -0.7104637276 1.1155584203 0.2539950846
C -1.7709790808 0.0007547978 0.4117907308
Cl -2.9845783140 0.0005760932 -0.8724756113
Cl -2.6083280356 0.0015684247 1.9602228717
Cl -1.3085496768 2.7600559352 0.2735815295
Cl 0.4913019655 1.7341065799 -2.2286952058
Cl 0.4894969244 -1.7367894453 -2.2274004545
Cl -1.3111269179 -2.7589786641 0.2758592973
H 2.2188226032 1.2740367762 2.1817265504
H 1.3877843768 2.5985601750 1.3280311372
H 2.2182211351 -1.2741677859 2.1817609672
H 1.3864109576 -2.5984035817 1.3282589538
25
CONF2
C 1.5886633118 1.6247348991 0.7909840364
C 0.2944150529 0.8773087285 1.1672758965
H -0.0439843207 1.2679247237 2.1297310484
C 0.3283774807 -0.6783343355 1.2518514645
H -0.0404297612 -0.9900081645 2.2324562057
C 1.6634712434 -1.4040290280 1.0402872280
O 2.4537362971 -0.8414664963 0.0311441030
S 3.6848808745 0.1358838535 0.6203542064
O 4.4032161078 -0.5846208995 1.6182505390
O 2.6952352600 1.1529036426 1.5012279867
C -0.7388883294 -1.0924666088 0.2016676086
C -0.2222558412 -0.6965763211 -1.1666722515
C -0.2794741390 0.6412185992 -1.2320270824
C -0.8087517864 1.1331779011 0.1026377941
C -1.8120673345 0.0004620966 0.4101896870
Cl -3.1396242066 -0.0906613972 -0.7529138527
Cl -2.4948138117 0.0532313890 2.0303128408
Cl -1.4475105067 2.7626881929 0.1038185851
Cl 0.1828774278 1.6670028165 -2.4974595873
Cl 0.3436735402 -1.7992597723 -2.3066551176
Cl -1.2864709036 -2.7484290353 0.3472356338
H 1.4551359967 2.6843262537 1.0312046834
H 1.7769272491 1.5333636897 -0.2837363642
H 2.2320280870 -1.4013378254 1.9786982826
H 1.4555108473 -2.4450870162 0.7717898417
25
CONF3
C 1.7226989626 1.4764049916 0.4423258215
C 0.4436386022 0.7783745700 0.9203950920
H 0.2490611107 1.1410532110 1.9331138626
C 0.4433428990 -0.7777232164 0.9210054520
H 0.2486724456 -1.1394572667 1.9340020364
C 1.7218623660 -1.4770311202 0.4434480353
O 2.7695177534 -1.2830190578 1.3480466684
S 3.8055725145 -0.0007502303 1.0418882977
O 4.7309005183 -0.0006764046 2.1141311290
O 2.7701361660 1.2822393248 1.3472122902
C -0.7778677991 -1.1168487743 0.0259078878
C -0.4425785458 -0.6708162051 -1.3845538287
C -0.4420899910 0.6700306438 -1.3852064166
C -0.7772498573 1.1174094333 0.0249347465
C -1.7696178644 0.0006737554 0.4250824904
Cl -3.2453449094 0.0007205009 -0.5471799700
Cl -2.2180252065 0.0016439180 2.1248012606
Cl -1.3573393151 2.7625101629 0.1724573673
Cl -0.0759339296 1.7383469115 -2.6430581520
Cl -0.0776739692 -1.7404882384 -2.6418209544
Cl -1.3586579345 -2.7615343157 0.1748733796
H 1.5292569065 2.5532466140 0.3929611060
H 2.0094604395 1.1323161275 -0.5597967876
H 1.5273804268 -2.5536758017 0.3950850688
H 2.0089435185 -1.1343266462 -0.5589413504
