13
CONF1
C -2.4154693483 0.0049748555 0.0002160199
C -0.9848102559 0.5298448503 -0.0001553383
C 0.0334962911 -0.6244178839 -0.0001132951
C 1.4104843122 -0.1610760789 -0.0019421990
C 2.5438867053 0.2558768494 0.0018304408
H -2.6078726062 -0.6106755916 -0.8850764168
H -2.6076517476 -0.6100996343 0.8859463424
H -3.1346564386 0.8294472165 0.0000047556
H -0.8109088280 1.1565284544 -0.8816343524
H -0.8104678487 1.1570914758 0.8808391460
H -0.1327210908 -1.2590441862 -0.8797230374
H -0.1318496272 -1.2584301767 0.8800891735
H 3.5480412471 0.6161483277 0.0000881047
