13
CONF1
C -2.4188851123 0.0074406521 0.0000094626
C -0.9837468079 0.5248117396 0.0000157596
C 0.0379988980 -0.6270534112 0.0001527498
C 1.4142271730 -0.1618040567 0.0005419899
C 2.5428801082 0.2592374436 -0.0022485346
H -2.6171776765 -0.6071731402 0.8847930597
H -3.1355451172 0.8337177382 -0.0001472189
H -2.6170952352 -0.6074435378 -0.8846046344
H -0.8048071477 1.1540293544 -0.8785468964
H -0.8048640918 1.1541473832 0.8785013675
H -0.1292569088 -1.2638933459 -0.8787519720
H -0.1295042776 -1.2639361208 0.8789808736
H 3.5419830593 0.6218321022 0.0013452921
