15
 xtb: 6.7.1 (edcfbbe)
C            1.70239338546564        0.39729211138760        0.64647024220689
C            0.89462930742243        0.40882953383051       -0.65008271404374
C           -0.56267902654252       -0.04122225306989       -0.49448376306920
H           -1.04716788706134        0.03122296436856       -1.48332587785142
C           -1.35628623352079        0.79384153298164        0.49480470533220
O           -0.64429155755866       -1.39845020943787       -0.02575105998429
H            1.35508844487071        1.16476394481809        1.34427382967979
H            2.76025623684942        0.59026494895206        0.44580985568767
H            1.62022818591232       -0.57268198764068        1.14545580132594
H            1.37572363595489       -0.24777546382920       -1.38904233262230
H            0.89977953857338        1.41384902569854       -1.09209287241142
H           -1.32356392574319        1.85196693824938        0.21818342841674
H           -2.39925966828293        0.46744110068661        0.50996006873831
H           -0.95187838586054        0.68057144006212        1.50435490789045
H           -0.16942124900483       -1.95666431713045       -0.65171341123834
