 xtb: 6.7.1 (edcfbbe)
          04152520173D

 11 10  0     0  0            999 V2000
    2.0293    0.0644   -0.0001 C   0  0  0  0  0  0  0  0  0  0  0  0
    0.7595   -0.7741    0.0002 C   0  0  0  0  0  0  0  0  0  0  0  0
   -0.4822    0.0802    0.0000 C   0  0  0  0  0  0  0  0  0  0  0  0
   -0.5201    1.2795    0.0000 O   0  0  0  0  0  0  0  0  0  0  0  0
   -1.5940   -0.6733   -0.0000 O   0  0  0  0  0  0  0  0  0  0  0  0
    2.9060   -0.5777    0.0001 H   0  0  0  0  0  0  0  0  0  0  0  0
    2.0590    0.7021   -0.8795 H   0  0  0  0  0  0  0  0  0  0  0  0
    2.0590    0.7028    0.8787 H   0  0  0  0  0  0  0  0  0  0  0  0
    0.7151   -1.4211   -0.8787 H   0  0  0  0  0  0  0  0  0  0  0  0
    0.7152   -1.4205    0.8795 H   0  0  0  0  0  0  0  0  0  0  0  0
   -2.3832   -0.1090   -0.0001 H   0  0  0  0  0  0  0  0  0  0  0  0
  1  2  1  0  0  0  0
  2  3  1  0  0  0  0
  3  4  2  0  0  0  0
  3  5  1  0  0  0  0
  1  6  1  0  0  0  0
  1  7  1  0  0  0  0
  1  8  1  0  0  0  0
  2  9  1  0  0  0  0
  2 10  1  0  0  0  0
  5 11  1  0  0  0  0
M  END
