 xtb: 6.7.1 (edcfbbe)
          04162510273D

 15 14  0     0  0            999 V2000
   -2.1453    0.3649   -0.4944 C   0  0  0  0  0  0  0  0  0  0  0  0
   -1.0590    0.1569    0.5613 C   0  0  0  0  0  0  0  0  0  0  0  0
   -0.0143   -0.7954    0.0681 C   0  0  0  0  0  0  0  0  0  0  0  0
    1.2719   -0.5562   -0.1358 C   0  0  0  0  0  0  0  0  0  0  0  0
    2.0127    0.7213    0.0901 C   0  0  0  0  0  0  0  0  0  0  0  0
   -2.6117   -0.5832   -0.7540 H   0  0  0  0  0  0  0  0  0  0  0  0
   -1.7159    0.7937   -1.3972 H   0  0  0  0  0  0  0  0  0  0  0  0
   -2.9150    1.0378   -0.1230 H   0  0  0  0  0  0  0  0  0  0  0  0
   -0.6216    1.1193    0.8252 H   0  0  0  0  0  0  0  0  0  0  0  0
   -1.5164   -0.2610    1.4633 H   0  0  0  0  0  0  0  0  0  0  0  0
   -0.3963   -1.7846   -0.1541 H   0  0  0  0  0  0  0  0  0  0  0  0
    1.8938   -1.3628   -0.5060 H   0  0  0  0  0  0  0  0  0  0  0  0
    2.5057    1.0288   -0.8321 H   0  0  0  0  0  0  0  0  0  0  0  0
    2.7875    0.5714    0.8423 H   0  0  0  0  0  0  0  0  0  0  0  0
    1.3613    1.5248    0.4193 H   0  0  0  0  0  0  0  0  0  0  0  0
  1  2  1  0  0  0  0
  2  3  1  0  0  0  0
  3  4  2  0  0  0  0
  4  5  1  0  0  0  0
  1  6  1  0  0  0  0
  1  7  1  0  0  0  0
  1  8  1  0  0  0  0
  2  9  1  0  0  0  0
  2 10  1  0  0  0  0
  3 11  1  0  0  0  0
  4 12  1  0  0  0  0
  5 13  1  0  0  0  0
  5 14  1  0  0  0  0
  5 15  1  0  0  0  0
M  END
