12
 xtb: 6.7.1 (edcfbbe)
C           -2.03495647329516        0.71671121069274        0.42600029990551
O           -1.10828790226835       -0.39829558206162        0.42660675426887
S            0.40036421961348        0.00479609768738       -0.12286486461774
O            1.00269003112784        0.95259456242783        0.81653192354502
O            0.30681915008633        0.34810335311102       -1.54295200075318
C            1.14453038812094       -1.63722812474066        0.07683145895043
H           -1.67548253907274        1.51288033127190        1.08496790045774
H           -2.96871815428861        0.30553205985367        0.80944726195567
H           -2.17919243590399        1.09346239186534       -0.59120228914975
H            0.38234518949928       -2.32129259918797        0.44980510756101
H            1.50399206080367       -1.95160953310353       -0.90349882009434
H            1.96380816066940       -1.53948378901405        0.78972568396882
