 xtb: 6.7.1 (edcfbbe)
          04152520403D

 11 10  0     0  0            999 V2000
   -2.9943    0.6071    0.3444 C   0  0  0  0  0  0  0  0  0  0  0  0
   -1.7665    0.1293   -0.4222 C   0  0  0  0  0  0  0  0  0  0  0  0
   -0.7200   -0.4100    0.5349 C   0  0  0  0  0  0  0  0  0  0  0  0
    0.8650   -1.0289   -0.4285 Br  0  0  0  0  0  0  0  0  0  0  0  0
   -2.7287    1.3999    1.0406 H   0  0  0  0  0  0  0  0  0  0  0  0
   -3.7397    0.9924   -0.3463 H   0  0  0  0  0  0  0  0  0  0  0  0
   -3.4383   -0.2108    0.9079 H   0  0  0  0  0  0  0  0  0  0  0  0
   -1.3439    0.9574   -0.9958 H   0  0  0  0  0  0  0  0  0  0  0  0
   -2.0533   -0.6538   -1.1279 H   0  0  0  0  0  0  0  0  0  0  0  0
   -1.0902   -1.2687    1.0940 H   0  0  0  0  0  0  0  0  0  0  0  0
   -0.3744    0.3570    1.2273 H   0  0  0  0  0  0  0  0  0  0  0  0
  1  2  1  0  0  0  0
  2  3  1  0  0  0  0
  3  4  1  0  0  0  0
  1  5  1  0  0  0  0
  1  6  1  0  0  0  0
  1  7  1  0  0  0  0
  2  8  1  0  0  0  0
  2  9  1  0  0  0  0
  3 10  1  0  0  0  0
  3 11  1  0  0  0  0
M  END
