8
CONF1
C -0.6498589237 0.8828043785 0.4182170457
C 0.3922968046 0.1143969614 -0.3667042830
Cl 0.3938821153 -1.6297404632 0.0524472741
Cl 2.0019320072 0.8577688569 0.0027426228
Cl -2.3139890524 0.3728363746 -0.0712107693
H -0.5372523676 0.7092567356 1.4897777384
H -0.5563155673 1.9476773595 0.1951554120
H 0.2427149338 0.1904793836 -1.4446724625
8
CONF2
C -0.8509902080 0.5880212139 -0.9322746961
C 0.5176305644 -0.0382299161 -0.7689582139
Cl 0.4073643059 -1.7620801084 -0.2681870465
Cl 1.5488342101 0.8990328456 0.3681447821
Cl -1.8115982601 0.6372812898 0.5853818764
H -0.7277870925 1.6163476307 -1.2823010012
H -1.4174117227 0.0094306689 -1.6668068867
H 1.0291951452 -0.0264612577 -1.7353417568
