22
 xtb: 6.7.1 (edcfbbe)
C            4.82538335459592        0.11342012491495       -0.00047489762988
C            4.53727013334246        1.47415043179899       -0.00068742943985
C            3.21424056975817        1.90918513966787       -0.00041852822582
C            2.19096016804924        0.97645586369109        0.00007989264506
C            2.47863641135888       -0.38385494120962        0.00023553242079
C            3.79264518368742       -0.82096348808523       -0.00002691110308
O            1.47730380153763       -1.33672544628888        0.00070446818765
C            0.19179818003830       -0.86698507607487        0.00032284311612
C           -0.85513447616228       -1.78371418624610        0.00004208655319
C           -2.17772306688028       -1.35796926915328       -0.00018443027507
C           -2.45820663960321        0.00043098151129       -0.00017999791112
C           -1.42329382122375        0.94207008949505        0.00003298968111
C           -0.09943831514557        0.49945839939844        0.00025454535171
O            0.88861127313884        1.44463622021868        0.00047378107104
Cl          -1.73654770514710        2.64312488140937        0.00004799801184
Cl          -4.11786670622799        0.51429320751011       -0.00043880119885
Cl          -0.49696908268020       -3.48504001203494        0.00003905574757
H            5.85413756218026       -0.22874160625455       -0.00066197319668
H            5.33903746781447        2.20387225062589       -0.00106704561324
H            2.95833238253412        2.96291266404649       -0.00056437906754
H            3.98620008666922       -1.88794853460160        0.00013937235449
H           -2.98180895139587       -2.08190299513304       -0.00038195124653
