21
CONF1
C 2.4938347705 -0.0000978323 -0.0848944373
C 1.0245111588 -0.0000550637 0.3287259026
C 0.3025230396 1.2560942377 -0.1734163012
C -1.1774824791 1.2600622516 0.2157387448
C -1.8846928020 0.0000765113 -0.2877452609
C -1.1775830979 -1.2599969342 0.2156604771
C 0.3024305031 -1.2561301651 -0.1734668604
H 2.5858826849 0.0001285328 -1.1774594063
H 3.0144034142 0.8856952421 0.2943146912
H 3.0142418469 -0.8861483048 0.2939324387
H 0.9713677318 -0.0000758359 1.4288516018
H 0.8017238374 2.1530070105 0.2144876237
H 0.3902265359 1.2958305712 -1.2697103954
H -1.2627752559 1.3076062488 1.3105775990
H -1.6700481527 2.1569943702 -0.1778101578
H -2.9349997711 0.0001064197 0.0263796950
H -1.8813307356 0.0001129132 -1.3869349925
H -1.2628987768 -1.3076096642 1.3104940295
H -1.6702128321 -2.1568629430 -0.1779572489
H 0.8015462951 -2.1530893926 0.2144373154
H 0.3901627496 -1.2958569497 -1.2697579553
21
CONF2
C 1.9595388809 -0.0000602322 -0.7655095501
C 1.1195731535 -0.0000905732 0.5147856962
C 0.2423094987 1.2585828368 0.6340377856
C -0.9231682897 1.2624812057 -0.3599002384
C -1.7761661422 0.0000962881 -0.2102286037
C -0.9232696091 -1.2623317798 -0.3600935764
C 0.2421634122 -1.2586720880 0.6338899529
H 2.6032252774 0.8850141333 -0.8072909026
H 2.6027356444 -0.8854741191 -0.8076619440
H 1.3418154565 0.0003002389 -1.6682230509
H 1.8198016812 -0.0001851368 1.3614398601
H -0.1681811350 1.3040281452 1.6524595424
H 0.8589121043 2.1562451098 0.5013859448
H -1.5379387078 2.1571676058 -0.2065393872
H -0.5403462783 1.3221354859 -1.3871457091
H -2.2442111278 0.0000342773 0.7849450873
H -2.5912037050 0.0001936220 -0.9434633231
H -1.5381129971 -2.1569959923 -0.2069073219
H -0.5404101703 -1.3218400264 -1.3873338406
H -0.1683838868 -1.3041601275 1.6522879971
H 0.8586708027 -2.1563917355 0.5011924894
