18
 xtb: 6.7.1 (edcfbbe)
C           -2.81961791157377        0.77494235613306       -0.67458846155992
O           -2.08426041474857        0.53226723040843        0.52691517586439
C           -0.82523387482652        0.00961891991765        0.29324002569442
C           -0.64765824820888       -1.37071680370678        0.25610063308603
C            0.63695188641538       -1.86749155103259        0.05597199025479
C            1.71961511196176       -1.01404151431285       -0.10838329823369
C            1.53460510320682        0.37490664032488       -0.07068272186717
C            0.24489771851279        0.88062542400150        0.13106481938273
N            2.62526684829348        1.23922792490341       -0.16275694531461
H           -2.96723911689605       -0.15476524226701       -1.24101862840185
H           -2.30139077675722        1.50357141006364       -1.31338952651166
H           -3.78875936788024        1.17772741584156       -0.37309719386722
H           -1.49914654234362       -2.02659810096533        0.39691965086269
H            0.79963354353407       -2.94039529849634        0.03140244140101
H            2.71655995517369       -1.41943700335645       -0.25363726560180
H            0.06721193564218        1.95074754126512        0.18555498176282
H            2.40257345662559        2.16783806829604       -0.48557965194578
H            3.42353171775613        0.85881357218272       -0.64681612949788
