29
CONF2
C -3.6818444668 0.2702846812 -0.1210506713
C -2.1990468284 0.2892611625 0.2381181453
H -2.0987686359 0.5575673516 1.2959435163
C -1.4357475732 1.3140908795 -0.5982495498
C 0.0425627576 1.3184302704 -0.2261396454
C 0.6747601463 -0.0578941376 -0.4770544129
H 0.5142674003 -0.3089770204 -1.5335728044
C -0.0965128238 -1.0894109866 0.3262396187
O 0.4106469781 -1.8415633707 1.1198297157
C -1.5799885776 -1.0988126746 0.0337915975
C 2.1884171550 -0.1290942374 -0.2027486619
C 2.9830933455 0.5582944274 -1.3110303532
C 2.5724834887 0.4420295490 1.1602231995
H -3.8168521745 0.0132699072 -1.1697750967
H -4.2132256173 -0.4613383257 0.4828571322
H -4.1274838180 1.2470587532 0.0527147183
H -1.5508709789 1.0773349924 -1.6590810907
H -1.8568459012 2.3079823380 -0.4315137976
H 0.5696644328 2.0718538181 -0.8134387216
H 0.1426785370 1.5785859242 0.8286086615
H -1.7233932354 -1.4039572607 -1.0060135401
H -2.0647963192 -1.8337724341 0.6789137452
H 2.4509428957 -1.1932517499 -0.2010490260
H 2.7729342664 1.6253209160 -1.3363675709
H 2.7415478480 0.1352389165 -2.2840797160
H 4.0491862142 0.4297841519 -1.1397785211
H 3.6203911197 0.2331734219 1.3632789699
H 1.9776361810 -0.0181017821 1.9442336073
H 2.4320425699 1.5201354340 1.1888221410
29
CONF1
C -3.6975840254 0.1508739904 -0.2907395125
C -2.2608141007 0.1106879597 0.2203880014
H -2.2772581344 -0.0611548347 1.3025188720
C -1.5336276670 1.4246615930 -0.0563105259
C -0.0867684455 1.3783657143 0.4262602827
C 0.6898613406 0.2351559017 -0.2506891726
H 0.6399359102 0.3872480294 -1.3348295856
C -0.0691490688 -1.0349585832 0.0900981965
O 0.3722318114 -1.9229023272 0.7751923819
C -1.4846047220 -1.0406867287 -0.4354935760
C 2.1652348346 0.1408704301 0.1722914163
C 2.8828810391 -0.8868148265 -0.7033945132
C 2.8889564843 1.4826307450 0.0783540597
H -4.2500721106 0.9533701308 0.1926367858
H -3.7152979443 0.3205026164 -1.3654402014
H -4.2045449037 -0.7882303832 -0.0827263702
H -1.5523912073 1.6273121763 -1.1303981166
H -2.0553664804 2.2431057073 0.4445817177
H 0.3926396601 2.3308414386 0.2002630655
H -0.0612381910 1.2336208481 1.5089635269
H -1.4779134024 -0.9011201601 -1.5182404799
H -1.9542131865 -1.9977138412 -0.2031083603
H 2.1964742236 -0.2084054642 1.2093240520
H 2.8760496373 -0.5704725374 -1.7453916877
H 2.4011525405 -1.8573783884 -0.6289521114
H 3.9171011456 -0.9962386011 -0.3859362541
H 3.9529279715 1.3368673317 0.2503076090
H 2.5263415987 2.1880483453 0.8210653177
H 2.7622003875 1.9175319828 -0.9115077911
29
CONF3
C -3.6967637423 0.0375608963 -0.1122520358
C -2.2252117175 0.0191283128 0.2902252169
H -2.1450582122 -0.3829350176 1.3065532196
C -1.6251289246 1.4235992257 0.2733991839
C -0.1508568388 1.3834860928 0.6581639694
C 0.6515197280 0.5059680664 -0.3167155814
H 0.4726620356 0.8942987305 -1.3277349747
C 0.0453361272 -0.8837848318 -0.2793013566
O 0.6309094417 -1.8921805964 0.0245667589
C -1.4221304301 -0.8897083902 -0.6495841897
C 2.1695837368 0.5726807088 -0.0644479296
C 2.5776672922 0.0507025867 1.3115170257
C 2.9223842736 -0.1835749121 -1.1586450263
H -4.1128500535 -0.9667603935 -0.0903704975
H -4.2694561345 0.6609842897 0.5705653124
H -3.8118790193 0.4353514442 -1.1185330161
H -1.7354596282 1.8547798876 -0.7248954412
H -2.1683751804 2.0619547673 0.9735144828
H 0.2660745768 2.3930054272 0.6542629365
H -0.0563554271 0.9843158687 1.6694278596
H -1.5295142748 -0.5288722309 -1.6752588123
H -1.7962552544 -1.9138214934 -0.6000775331
H 2.4520526738 1.6324831898 -0.1257266112
H 2.1350481713 0.6452975067 2.1068489089
H 3.6592157094 0.1018002339 1.4160205326
H 2.2697061870 -0.9835613505 1.4290008213
H 2.6519876413 0.1898447356 -2.1448767421
H 2.6885971422 -1.2432286965 -1.1110362979
H 3.9953546615 -0.0618795206 -1.0299290839
29
CONF4
C -3.0482504155 -0.0838341337 -0.3124964554
C -2.0019011005 0.2470439422 0.7499366214
H -2.5249705207 0.4079066279 1.7003812611
C -1.2132337410 1.5153942530 0.4161975327
C -0.3097947900 1.3294793543 -0.7985838891
C 0.6648010804 0.1527291634 -0.6362461152
H 1.1516846465 -0.0370128636 -1.6000370463
C -0.1512870436 -1.0792044978 -0.2915100826
O -0.1229248693 -2.0843108692 -0.9578061678
C -1.0316378652 -0.9303737787 0.9259182197
C 1.7793380715 0.3926589869 0.4040180347
C 2.5867901673 -0.8897938394 0.6040906481
C 2.7145610268 1.5175814917 -0.0357181849
H -3.6680536648 -0.9142693042 0.0178580348
H -3.6934751428 0.7731796237 -0.4936190565
H -2.5780885356 -0.3719266393 -1.2490692910
H -1.9098960663 2.3339687668 0.2219397062
H -0.6109427378 1.8003090975 1.2814509900
H -0.9260160465 1.1442152241 -1.6805308853
H 0.2478611694 2.2479735999 -0.9857035639
H -1.5842109067 -1.8585422402 1.0825085680
H -0.3985974341 -0.7511513082 1.7969498033
H 1.3289945387 0.6742754541 1.3606148677
H 3.0321036744 -1.2050954441 -0.3368792463
H 1.9584068203 -1.7003577517 0.9661565006
H 3.3853024036 -0.7267828356 1.3249678690
H 3.1387199397 1.2995339861 -1.0134181714
H 3.5313923751 1.6184725461 0.6755851431
H 2.1975870875 2.4720338178 -0.0869485397
29
CONF7
C -3.3221902155 -0.3195875308 -0.1879690338
C -2.1809600833 0.5472251747 0.3386748214
H -2.6062003292 1.3044110823 1.0064997070
C -1.4573603853 1.2499542490 -0.8225784558
C 0.0463227036 1.3513570229 -0.5811846881
C 0.6404197644 -0.0555730129 -0.5718723260
H 0.5759744961 -0.4613237947 -1.5897612333
C -0.1732669030 -0.9899948225 0.3051161271
O 0.0104400717 -2.1826855453 0.3192133704
C -1.2038612221 -0.3066245986 1.1663838528
C 2.1289450784 -0.1498323241 -0.1618805043
C 3.0175066861 0.6522959893 -1.1091053586
C 2.3700530211 0.2789134636 1.2837990974
H -2.9283909597 -1.1413773624 -0.7824776595
H -3.8999188746 -0.7377714478 0.6333451319
H -3.9910875576 0.2710716914 -0.8104376638
H -1.6176152617 0.6828165583 -1.7428344190
H -1.8810665493 2.2441609691 -0.9739848868
H 0.5040859112 1.9377604745 -1.3792079487
H 0.2343742223 1.8660860242 0.3611172067
H -1.7494936821 -1.0551538562 1.7427510208
H -0.6623688076 0.3350577731 1.8649563564
H 2.3988362866 -1.2085628245 -0.2459359236
H 2.8309748059 0.3753813868 -2.1441646565
H 4.0647552022 0.4591266721 -0.8881383902
H 2.8400959744 1.7191897916 -0.9966146640
H 2.1168038061 1.3258941251 1.4343253258
H 3.4211732873 0.1507880026 1.5328821296
H 1.7848673059 -0.3294698231 1.9695666649
