7
CONF1
C -1.2566070369 -0.1681550040 0.0000075384
C 0.1258050592 0.4158074313 0.0000774844
O 1.1450386019 -0.2319111261 0.0000615577
H -1.8051914480 0.1950167646 0.8779083751
H -1.8048021184 0.1943574435 -0.8784173968
H -1.2205761809 -1.2584451238 0.0003912792
H 0.1659129285 1.5315320128 -0.0001459790
