31
 xtb: 6.7.1 (edcfbbe)
C            3.75946975162949       -0.19575309653399       -0.06397554366241
C            2.29789648335745       -0.16989687095509        0.37649019484681
H            2.26460774761447       -0.01097437011672        1.46588473777868
C            1.58517521149923       -1.48658298667024        0.07372099065679
C            0.12772168502209       -1.42270277245236        0.51622864705540
C           -0.67661064792676       -0.28355368384812       -0.14295728653023
H           -0.69682954031958       -0.44445167273070       -1.23244149931376
C            0.05985807688664        1.05219769742149        0.07416955039912
H           -0.02363880638575        1.33458109648966        1.14063236396691
C            1.53748381816306        0.96437058156644       -0.30429084407820
O           -0.43821506620323        2.11130357391456       -0.75781963741449
C           -2.13539803163224       -0.35134827714728        0.39242087411630
C           -2.96938061801037        0.93213747925052        0.29914408285636
C           -2.90829131225606       -1.47616914968855       -0.30745831122743
H            4.30751467511729       -1.00541927924654        0.42935906004190
H            3.83081596513863       -0.35223205219211       -1.14674212681876
H            4.26271068298773        0.74780865756780        0.17122207719680
H            1.64197643211701       -1.68374481639036       -1.00682683412171
H            2.09267347899262       -2.31941282849896        0.57640033010012
H           -0.36378448026607       -2.38171579628746        0.32422596079080
H            0.09960412988981       -1.27570824226046        1.60626559455434
H            1.58828372072751        0.82651878449856       -1.39405461908701
H            2.00222005343555        1.93342875214082       -0.08871823463858
H           -1.34740778216631        2.29781371982916       -0.51027030376070
H           -2.06451565543411       -0.60018619653268        1.46193765727636
H           -3.97168202730745        0.74700531038027        0.69991237902755
H           -3.09738322169149        1.25460383003883       -0.74168729878820
H           -2.54831608227471        1.75182192093263        0.89353942459702
H           -3.89578290665663       -1.61299737181475        0.14543490623865
H           -2.38747967541823       -2.43566787309755       -0.25881706670118
H           -3.05699976636561       -1.22846232642258       -1.36505576220206
