24
 xtb: 6.7.1 (edcfbbe)
C           -2.36824180949775       -1.23538759206401       -0.27593022205064
C           -1.07909434257184       -0.64220696224048        0.27208727310020
H           -1.11641756190768       -0.62713825007735        1.37598084652676
C           -0.80709176321493        0.78329984506570       -0.23045623736949
H           -0.86590361333642        0.78729054385736       -1.33329662846262
C            0.59268161842269        1.19663156046933        0.19221723935831
H            0.61198305160417        1.25637449084891        1.29469347728449
C            1.63198589363832        0.18094426059648       -0.25227082729448
H            1.62263155355216        0.12264955776025       -1.35733771884464
C            1.25250709996578       -1.19483252130845        0.29469431412855
H            1.24930724023464       -1.18344166393896        1.39610387543611
O           -0.05849908681106       -1.52500414738304       -0.19234225495673
O            2.12198057098533       -2.20389246246649       -0.08562605943263
O            2.92190216555409        0.52181342180579        0.22899851824225
O            0.96867276084939        2.45374263862855       -0.37059885126857
O           -1.68652598575428        1.75344989296163        0.33191258915625
O           -3.45747758883318       -0.39220616309687        0.13144073099451
H           -2.48881918696529       -2.25402553406644        0.11577346058462
H           -2.29233414683355       -1.28406628306938       -1.37178845911703
H            2.32019478389194       -2.10113342552627       -1.02506527060342
H            3.03432247766619        1.46683456471811        0.06204293639496
H            0.29187232038639        3.09081225891946       -0.10938605952035
H           -2.58767007114083        1.41473681054119        0.22902279184307
H           -4.26586170711746       -0.72201732546182       -0.27301594998025
