8
CONF1
C -0.7977089209 0.0000064249 0.6638518208
C 0.6067210222 0.0000626582 0.0039230670
Cl 0.5074644617 0.0000005767 -1.7798606754
Cl 1.4967972823 -1.4547931267 0.5619565700
Cl 1.4966321582 1.4550612319 0.5618451488
Cl -1.7208571049 1.4668035417 0.2100508033
Cl -1.7206983039 -1.4669256154 0.2101526894
H -0.6771758411 0.0000511801 1.7499024799
