8
CONF1
C -0.7991216377 0.0000568040 0.6521687050
C 0.6087968549 -0.0000863887 -0.0044770299
Cl 1.4929943189 -1.4557631509 0.5666435146
Cl 1.4934714705 1.4551576094 0.5671064417
Cl 0.5130844581 0.0002196040 -1.7808709390
Cl -1.7221952190 1.4669747991 0.2129231562
Cl -1.7226869629 -1.4664315695 0.2125137413
H -0.6649058065 -0.0001153694 1.7362619620
