 xtb: 6.7.1 (edcfbbe)
          04162511253D

 24 24  0     0  0            999 V2000
   -2.1938   -0.8924   -0.1447 C   0  0  0  0  0  0  0  0  0  0  0  0
   -1.1185   -0.3148    0.7989 C   0  0  0  0  0  0  0  0  0  0  0  0
   -1.5738   -0.2701    1.7968 H   0  0  0  0  0  0  0  0  0  0  0  0
   -0.7192    1.1331    0.4523 C   0  0  0  0  0  0  0  0  0  0  0  0
   -1.5731    1.6184   -0.0489 H   0  0  0  0  0  0  0  0  0  0  0  0
    0.5041    1.2365   -0.4885 C   0  0  0  0  0  0  0  0  0  0  0  0
    0.8581    2.2797   -0.4616 H   0  0  0  0  0  0  0  0  0  0  0  0
    1.6250    0.3218    0.0295 C   0  0  0  0  0  0  0  0  0  0  0  0
    2.4610    0.3258   -0.6783 H   0  0  0  0  0  0  0  0  0  0  0  0
    1.0752   -1.1208    0.1225 C   0  0  0  0  0  0  0  0  0  0  0  0
    1.8333   -1.7576    0.6021 H   0  0  0  0  0  0  0  0  0  0  0  0
   -0.0230   -1.2035    0.9802 O   0  0  0  0  0  0  0  0  0  0  0  0
    0.8390   -1.6149   -1.1709 O   0  0  0  0  0  0  0  0  0  0  0  0
    2.1356    0.7598    1.2538 O   0  0  0  0  0  0  0  0  0  0  0  0
    0.1375    0.9453   -1.8177 O   0  0  0  0  0  0  0  0  0  0  0  0
   -0.4603    1.7707    1.6854 O   0  0  0  0  0  0  0  0  0  0  0  0
   -1.7960   -1.0321   -1.4840 O   0  0  0  0  0  0  0  0  0  0  0  0
   -3.0894   -0.2620   -0.0688 H   0  0  0  0  0  0  0  0  0  0  0  0
   -2.4428   -1.8996    0.1982 H   0  0  0  0  0  0  0  0  0  0  0  0
   -0.1212   -1.7743   -1.2841 H   0  0  0  0  0  0  0  0  0  0  0  0
    1.4180    0.7468    1.9063 H   0  0  0  0  0  0  0  0  0  0  0  0
    0.5728    0.1133   -2.0744 H   0  0  0  0  0  0  0  0  0  0  0  0
   -0.1812    2.6807    1.5280 H   0  0  0  0  0  0  0  0  0  0  0  0
   -1.5071   -0.1678   -1.8283 H   0  0  0  0  0  0  0  0  0  0  0  0
  1  2  1  0  0  0  0
  2  3  1  0  0  0  0
  2  4  1  0  0  0  0
  4  5  1  0  0  0  0
  4  6  1  0  0  0  0
  6  7  1  0  0  0  0
  6  8  1  0  0  0  0
  8  9  1  0  0  0  0
  8 10  1  0  0  0  0
 10 11  1  0  0  0  0
  2 12  1  0  0  0  0
 10 12  1  0  0  0  0
 10 13  1  0  0  0  0
  8 14  1  0  0  0  0
  6 15  1  0  0  0  0
  4 16  1  0  0  0  0
  1 17  1  0  0  0  0
  1 18  1  0  0  0  0
  1 19  1  0  0  0  0
 13 20  1  0  0  0  0
 14 21  1  0  0  0  0
 15 22  1  0  0  0  0
 16 23  1  0  0  0  0
 17 24  1  0  0  0  0
M  END
