 xtb: 6.7.1 (edcfbbe)
          04162511253D

 24 24  0     0  0            999 V2000
   -2.1534   -0.9015   -0.2598 C   0  0  0  0  0  0  0  0  0  0  0  0
   -1.1598   -0.3416    0.7841 C   0  0  0  0  0  0  0  0  0  0  0  0
   -1.7095   -0.3641    1.7379 H   0  0  0  0  0  0  0  0  0  0  0  0
   -0.7478    1.1252    0.5358 C   0  0  0  0  0  0  0  0  0  0  0  0
   -1.6090    1.6677    0.1133 H   0  0  0  0  0  0  0  0  0  0  0  0
    0.4350    1.2797   -0.4350 C   0  0  0  0  0  0  0  0  0  0  0  0
    0.8285    2.2989   -0.2912 H   0  0  0  0  0  0  0  0  0  0  0  0
    1.5630    0.3001   -0.0667 C   0  0  0  0  0  0  0  0  0  0  0  0
    2.2887    0.2477   -0.8883 H   0  0  0  0  0  0  0  0  0  0  0  0
    1.0451   -1.1452    0.1659 C   0  0  0  0  0  0  0  0  0  0  0  0
    1.8339   -1.6853    0.7076 H   0  0  0  0  0  0  0  0  0  0  0  0
   -0.0522   -1.1840    1.0446 O   0  0  0  0  0  0  0  0  0  0  0  0
    0.8463   -1.8228   -1.0276 O   0  0  0  0  0  0  0  0  0  0  0  0
    2.2679    0.7727    1.0469 O   0  0  0  0  0  0  0  0  0  0  0  0
   -0.0399    1.1365   -1.7568 O   0  0  0  0  0  0  0  0  0  0  0  0
   -0.3273    1.7339    1.7389 O   0  0  0  0  0  0  0  0  0  0  0  0
   -1.6834   -0.9888   -1.5773 O   0  0  0  0  0  0  0  0  0  0  0  0
   -3.0618   -0.2836   -0.2175 H   0  0  0  0  0  0  0  0  0  0  0  0
   -2.4093   -1.9228    0.0339 H   0  0  0  0  0  0  0  0  0  0  0  0
   -0.0669   -1.6690   -1.3516 H   0  0  0  0  0  0  0  0  0  0  0  0
    1.6278    0.9722    1.7458 H   0  0  0  0  0  0  0  0  0  0  0  0
    0.7144    1.0474   -2.3507 H   0  0  0  0  0  0  0  0  0  0  0  0
   -1.0198    1.6523    2.4043 H   0  0  0  0  0  0  0  0  0  0  0  0
   -1.3453   -0.1169   -1.8568 H   0  0  0  0  0  0  0  0  0  0  0  0
  1  2  1  0  0  0  0
  2  3  1  0  0  0  0
  2  4  1  0  0  0  0
  4  5  1  0  0  0  0
  4  6  1  0  0  0  0
  6  7  1  0  0  0  0
  6  8  1  0  0  0  0
  8  9  1  0  0  0  0
  8 10  1  0  0  0  0
 10 11  1  0  0  0  0
  2 12  1  0  0  0  0
 10 12  1  0  0  0  0
 10 13  1  0  0  0  0
  8 14  1  0  0  0  0
  6 15  1  0  0  0  0
  4 16  1  0  0  0  0
  1 17  1  0  0  0  0
  1 18  1  0  0  0  0
  1 19  1  0  0  0  0
 13 20  1  0  0  0  0
 14 21  1  0  0  0  0
 15 22  1  0  0  0  0
 16 23  1  0  0  0  0
 17 24  1  0  0  0  0
M  END
