19
 xtb: 6.7.1 (edcfbbe)
C           -3.82810726691644        0.68824185616749       -0.03297011035421
O           -2.39379723382630        0.83118837186995       -0.03870502110093
C           -1.71000895925035       -0.33950980709563        0.03824248001643
O           -2.25620835847122       -1.42066621982622        0.10949996792069
C           -0.24629109892029       -0.13365487526239        0.02277302894350
C            0.57908321872922       -1.26186874034288        0.10297782352540
C            1.95589288645633       -1.13558215300401        0.09132780196550
C            2.52847422956085        0.13499911128815       -0.00194381569632
C            1.71837843493244        1.26996683463102       -0.08270645407928
C            0.33866396092310        1.13282996245459       -0.06981784289562
O            3.88887953142391        0.20489694511052       -0.00999347772743
H           -4.22169007312449        1.70358299197760       -0.08422041539253
H           -4.15886962943182        0.19004813467162        0.88225301747010
H           -4.15648592015324        0.10223465163802       -0.89577770801037
H            0.11467557777519       -2.23923913394622        0.17437797052137
H            2.60464913022051       -2.00212118375504        0.15299005869972
H            2.16813748489506        2.25707225121934       -0.15549776174028
H           -0.29069288618232        2.01216687434909       -0.13252195822069
H            4.16035727475730        1.12778026341401       -0.07617554994258
