17
CONF1
C -0.2064091321 -2.3301246707 -0.1444184118
C 0.4892206030 -1.0032637751 -0.0433660568
C 1.8881787716 -0.9654415233 -0.0398225486
C 2.5984151377 0.2256842353 0.0385310459
C 1.9232848603 1.4416233567 0.0924187140
C 0.5381673633 1.4492766646 0.0649819537
C -0.1542130446 0.2423946519 0.0135113608
N -1.6274294831 0.3375187238 0.0215799803
O -2.1297632152 1.3685365029 -0.4106785077
O -2.2597306296 -0.6107568777 0.4734555193
H -0.6760166256 -2.6028021483 0.8039364753
H -1.0027973879 -2.3176858029 -0.8921826029
H 0.5187422437 -3.1012297793 -0.4144681304
H 2.4273451658 -1.9058033644 -0.1012550674
H 3.6832517258 0.2036466901 0.0504548335
H 2.4696585299 2.3764314054 0.1503919492
H -0.0242594342 2.3742205460 0.0913168371
17
CONF3
C -0.1864698182 -2.2949342227 -0.4814011908
C 0.5024684173 -0.9908637172 -0.1998944178
C 1.8978308032 -0.9636036877 -0.0971763702
C 2.5996659711 0.2054859349 0.1676184019
C 1.9176967585 1.4025367305 0.3661436797
C 0.5338223767 1.4126639032 0.3014192661
C -0.1477693997 0.2346762688 0.0082968402
N -1.6182284914 0.3377389757 -0.0731110571
O -2.2077058695 -0.4546146564 -0.7998316222
O -2.1598328402 1.2191908580 0.5836617905
H 0.5228709294 -3.1161363505 -0.3555610277
H -1.0384450716 -2.4595894374 0.1823918924
H -0.5787917166 -2.3198486506 -1.5013015058
H 2.4409632557 -1.8941717206 -0.2306727563
H 3.6829055469 0.1793829178 0.2258849529
H 2.4574954586 2.3194405539 0.5750612725
H -0.0348617225 2.3194367311 0.4654508653
17
CONF2
C -0.1853123016 -2.3325795769 -0.2896910384
C 0.4849330297 -0.9994049336 -0.1203510112
C 1.8852209692 -0.9592959321 -0.1089859499
C 2.5985407801 0.2217983550 0.0410694974
C 1.9242257228 1.4301331774 0.1871332748
C 0.5398437392 1.4367507127 0.1800535913
C -0.1615068674 0.2412056245 0.0293184833
N -1.6387720755 0.3541458167 0.0358753184
O -2.2985098795 -0.6738941897 -0.0685306842
O -2.1239952426 1.4739965323 0.1464358753
H -0.8264995358 -2.5716529808 0.5619428265
H -0.8305802928 -2.3504333721 -1.1712110498
H 0.5768214034 -3.1087483787 -0.3908084622
H 2.4235669658 -1.8949783484 -0.2228724853
H 3.6834132822 0.1970767702 0.0434658606
H 2.4699769348 2.3595773832 0.3053716729
H -0.0200920034 2.3561656772 0.2902782676
