18
CONF1
C -2.7582885477 -0.7650205352 0.0005527305
O -1.7977469188 0.2580513114 -0.0179339904
C -0.4673695260 -0.1014391356 0.0005758783
C 0.0048073019 -1.4001224269 0.0085923222
C 1.3715452731 -1.6496982337 0.0083315054
C 2.2671627221 -0.6002345581 -0.0054529946
C 1.8028876805 0.7043101373 -0.0151217403
C 0.4414295323 0.9763774428 -0.0068057400
N -0.0391626737 2.2704816552 0.0630751373
H -2.6773161072 -1.3767295802 0.9050659645
H -2.6789738924 -1.4099475024 -0.8814975273
H -3.7252276016 -0.2632480367 -0.0074496713
H -0.6795958112 -2.2339857303 0.0125961812
H 1.7232176290 -2.6700758975 0.0155791646
H 3.3298302513 -0.7905072536 -0.0111291148
H 2.4983922333 1.5311666165 -0.0263623235
H 0.5735832716 2.9880114753 -0.2892191775
H -1.0069948793 2.3704694578 -0.1982882957
