8
 xtb: 6.7.1 (edcfbbe)
C           -0.64985892397377        0.88280437889210        0.41821704588125
C            0.39229680478282        0.11439696140452       -0.36670428312411
Cl           0.39388211549211       -1.62974046395483        0.05244727414649
Cl           2.00193200807963        0.85776885724541        0.00274262280565
Cl          -2.31398905347522        0.37283637480377       -0.07121076934677
H           -0.53725236779634        0.70925673596273        1.48977773906195
H           -0.55631556759381        1.94767736039810        0.19515541206660
H            0.24271493388455        0.19047938364632       -1.44467246316283
