 xtb: 6.7.1 (edcfbbe)
          04162512053D

 24 24  0     0  0            999 V2000
   -2.5576   -0.8839    0.2677 C   0  0  0  0  0  0  0  0  0  0  0  0
   -1.1354   -0.4345    0.6301 C   0  0  0  0  0  0  0  0  0  0  0  0
   -1.0369   -0.3686    1.7233 H   0  0  0  0  0  0  0  0  0  0  0  0
   -0.8340    0.9479    0.0344 C   0  0  0  0  0  0  0  0  0  0  0  0
   -1.0683    0.9332   -1.0416 H   0  0  0  0  0  0  0  0  0  0  0  0
    0.6515    1.2937    0.2033 C   0  0  0  0  0  0  0  0  0  0  0  0
    0.8692    1.4187    1.2775 H   0  0  0  0  0  0  0  0  0  0  0  0
    1.5170    0.1524   -0.3304 C   0  0  0  0  0  0  0  0  0  0  0  0
    1.3470    0.0468   -1.4161 H   0  0  0  0  0  0  0  0  0  0  0  0
    1.0980   -1.1575    0.3634 C   0  0  0  0  0  0  0  0  0  0  0  0
    1.2962   -1.0689    1.4452 H   0  0  0  0  0  0  0  0  0  0  0  0
   -0.2555   -1.4239    0.1195 O   0  0  0  0  0  0  0  0  0  0  0  0
    1.8560   -2.2268   -0.0905 O   0  0  0  0  0  0  0  0  0  0  0  0
    2.8684    0.4456   -0.0757 O   0  0  0  0  0  0  0  0  0  0  0  0
    0.8956    2.4996   -0.4778 O   0  0  0  0  0  0  0  0  0  0  0  0
   -1.6376    1.8844    0.7007 O   0  0  0  0  0  0  0  0  0  0  0  0
   -2.6969   -1.1059   -1.1074 O   0  0  0  0  0  0  0  0  0  0  0  0
   -3.2554   -0.0908    0.5374 H   0  0  0  0  0  0  0  0  0  0  0  0
   -2.7948   -1.7943    0.8347 H   0  0  0  0  0  0  0  0  0  0  0  0
    1.4674   -2.5422   -0.9161 H   0  0  0  0  0  0  0  0  0  0  0  0
    3.3630   -0.3839   -0.1025 H   0  0  0  0  0  0  0  0  0  0  0  0
    1.8514    2.6278   -0.5037 H   0  0  0  0  0  0  0  0  0  0  0  0
   -1.3664    2.7582    0.3922 H   0  0  0  0  0  0  0  0  0  0  0  0
   -2.0064   -1.7273   -1.3682 H   0  0  0  0  0  0  0  0  0  0  0  0
  1  2  1  0  0  0  0
  2  3  1  0  0  0  0
  2  4  1  0  0  0  0
  4  5  1  0  0  0  0
  4  6  1  0  0  0  0
  6  7  1  0  0  0  0
  6  8  1  0  0  0  0
  8  9  1  0  0  0  0
  8 10  1  0  0  0  0
 10 11  1  0  0  0  0
  2 12  1  0  0  0  0
 10 12  1  0  0  0  0
 10 13  1  0  0  0  0
  8 14  1  0  0  0  0
  6 15  1  0  0  0  0
  4 16  1  0  0  0  0
  1 17  1  0  0  0  0
  1 18  1  0  0  0  0
  1 19  1  0  0  0  0
 13 20  1  0  0  0  0
 14 21  1  0  0  0  0
 15 22  1  0  0  0  0
 16 23  1  0  0  0  0
 17 24  1  0  0  0  0
M  END
