15
 xtb: 6.7.1 (edcfbbe)
C            2.06746898784414        0.01296006339935       -0.09699454639477
C            0.75568794716022        0.67900100636740        0.31076929896787
C           -0.46573663068830        0.04787050081875       -0.34405536348929
H           -0.33315325507519        0.08165999757511       -1.44016966955982
C           -1.75518127027648        0.76885864415524        0.03030221122201
O           -0.50104822835708       -1.32276003445206        0.08876959638118
H            2.21794622409919        0.07674575347161       -1.18057478380594
H            2.06596241276808       -1.04377742194450        0.18077569116773
H            2.92040409973879        0.49585202768762        0.38927789953710
H            0.77257433477312        1.74304348178185        0.04517148589414
H            0.62471553210532        0.62204456674563        1.39918364410911
H           -1.88880059355740        0.75976577626174        1.11680143642625
H           -1.73335038396033        1.80856421210953       -0.31253557640153
H           -2.62527411063110        0.28492420748226       -0.42726610049761
H           -1.25847431732564       -1.74625380127527       -0.32890106897430
