 xtb: 6.7.1 (edcfbbe)
          04152519193D

 13 13  0     0  0            999 V2000
   -1.8202   -1.3479    0.0000 C   0  0  0  0  0  0  0  0  0  0  0  0
   -0.4879   -1.7039    0.0000 C   0  0  0  0  0  0  0  0  0  0  0  0
    0.5016   -0.7306    0.0000 C   0  0  0  0  0  0  0  0  0  0  0  0
    0.1419    0.6122   -0.0000 C   0  0  0  0  0  0  0  0  0  0  0  0
   -1.1955    0.9752    0.0000 C   0  0  0  0  0  0  0  0  0  0  0  0
   -2.1838   -0.0025    0.0000 C   0  0  0  0  0  0  0  0  0  0  0  0
   -3.5004    0.3084    0.0000 O   0  0  0  0  0  0  0  0  0  0  0  0
    1.3489    1.8406   -0.0000 Cl  0  0  0  0  0  0  0  0  0  0  0  0
    2.1635   -1.1912   -0.0000 Cl  0  0  0  0  0  0  0  0  0  0  0  0
   -2.5956   -2.0960    0.0000 H   0  0  0  0  0  0  0  0  0  0  0  0
   -0.2029   -2.7437    0.0000 H   0  0  0  0  0  0  0  0  0  0  0  0
   -1.4585    2.0231   -0.0000 H   0  0  0  0  0  0  0  0  0  0  0  0
   -3.6193    1.2663    0.0000 H   0  0  0  0  0  0  0  0  0  0  0  0
  1  2  4  0  0  0  0
  2  3  4  0  0  0  0
  3  4  4  0  0  0  0
  4  5  4  0  0  0  0
  1  6  4  0  0  0  0
  5  6  4  0  0  0  0
  6  7  1  0  0  0  0
  4  8  1  0  0  0  0
  3  9  1  0  0  0  0
  1 10  1  0  0  0  0
  2 11  1  0  0  0  0
  5 12  1  0  0  0  0
  7 13  1  0  0  0  0
M  END
