12
CONF1
C 2.1181251120 0.0164865519 0.0001194348
N 0.6659608778 -0.0091288363 -0.0001672108
C -0.1335325629 -1.1312897014 -0.0000096874
C -1.4240679996 -0.6643527963 0.0001059442
N -1.4413347721 0.7098862205 0.0000330663
C -0.1747211310 1.0680034216 -0.0000834012
H 2.5141320278 -0.4777651647 0.8929979359
H 2.5144147084 -0.4811658947 -0.8907267241
H 2.4528561319 1.0558993936 -0.0018399781
H 0.2838864016 -2.1266120058 -0.0000267844
H -2.3370100991 -1.2426943751 0.0001767813
H 0.2018260201 2.0831215633 -0.0001681142
