 xtb: 6.7.1 (edcfbbe)
          04152520163D

 16 16  0     0  0            999 V2000
   -2.6782   -0.8514    0.0534 C   0  0  0  0  0  0  0  0  0  0  0  0
   -1.8767    0.3031    0.0941 O   0  0  0  0  0  0  0  0  0  0  0  0
   -0.5219    0.1590    0.0388 C   0  0  0  0  0  0  0  0  0  0  0  0
    0.2152    1.3436    0.0828 C   0  0  0  0  0  0  0  0  0  0  0  0
    1.5926    1.3098    0.0331 C   0  0  0  0  0  0  0  0  0  0  0  0
    2.2601    0.0979   -0.0610 C   0  0  0  0  0  0  0  0  0  0  0  0
    1.5323   -1.0757   -0.1047 C   0  0  0  0  0  0  0  0  0  0  0  0
    0.1475   -1.0555   -0.0556 C   0  0  0  0  0  0  0  0  0  0  0  0
   -3.7069   -0.4984    0.1098 H   0  0  0  0  0  0  0  0  0  0  0  0
   -2.4765   -1.5122    0.9030 H   0  0  0  0  0  0  0  0  0  0  0  0
   -2.5380   -1.4068   -0.8799 H   0  0  0  0  0  0  0  0  0  0  0  0
   -0.3212    2.2766    0.1560 H   0  0  0  0  0  0  0  0  0  0  0  0
    2.1506    2.2338    0.0679 H   0  0  0  0  0  0  0  0  0  0  0  0
    3.3384    0.0716   -0.1000 H   0  0  0  0  0  0  0  0  0  0  0  0
    2.0415   -2.0258   -0.1779 H   0  0  0  0  0  0  0  0  0  0  0  0
   -0.3934   -1.9883   -0.0915 H   0  0  0  0  0  0  0  0  0  0  0  0
  1  2  1  0  0  0  0
  2  3  1  0  0  0  0
  3  4  4  0  0  0  0
  4  5  4  0  0  0  0
  5  6  4  0  0  0  0
  6  7  4  0  0  0  0
  3  8  4  0  0  0  0
  7  8  4  0  0  0  0
  1  9  1  0  0  0  0
  1 10  1  0  0  0  0
  1 11  1  0  0  0  0
  4 12  1  0  0  0  0
  5 13  1  0  0  0  0
  6 14  1  0  0  0  0
  7 15  1  0  0  0  0
  8 16  1  0  0  0  0
M  END
