8
CONF1
C 1.2282794605 0.5641112890 0.0000625249
C 0.2835604154 -0.6154076148 0.0000616563
Br -1.5558024403 0.0278289076 -0.0000116843
Cl 2.9086729738 -0.0425086568 -0.0000275087
H 1.1016052985 1.1785693026 -0.8921476648
H 1.1015983519 1.1785833924 0.8923088324
H 0.4039640607 -1.2283435056 0.8923517582
H 0.4039906343 -1.2284832205 -0.8920988471
8
CONF2
C 1.2577385557 0.3101929052 1.1439496937
C 0.0317337581 -0.5730214020 1.1033483793
Br -1.2256866918 0.0067547816 -0.2692497170
Cl 2.2499944079 0.0944050111 -0.3285012238
H 0.9891220422 1.3654806814 1.2002641237
H 1.8836280359 0.0399196518 1.9958531981
H -0.5038868008 -0.5242942264 2.0517243097
H 0.2904935222 -1.6052273988 0.8719977564
