 xtb: 6.7.1 (edcfbbe)
          04152521333D

 24 24  0     0  0            999 V2000
   -3.1871   -0.6743    0.5233 C   0  0  0  0  0  0  0  0  0  0  0  0
   -1.7792   -0.5436    0.3944 O   0  0  0  0  0  0  0  0  0  0  0  0
   -1.3512    0.3361   -0.5214 C   0  0  0  0  0  0  0  0  0  0  0  0
   -2.0960    0.9871   -1.2066 O   0  0  0  0  0  0  0  0  0  0  0  0
    0.1593    0.3999   -0.5768 C   0  0  0  0  0  0  0  0  0  0  0  0
    0.7396   -0.9666   -0.9572 C   0  0  0  0  0  0  0  0  0  0  0  0
    2.2623   -0.8957   -1.0149 C   0  0  0  0  0  0  0  0  0  0  0  0
    2.8281   -0.4389    0.3261 C   0  0  0  0  0  0  0  0  0  0  0  0
    2.2475    0.9173    0.7140 C   0  0  0  0  0  0  0  0  0  0  0  0
    0.7247    0.8502    0.7747 C   0  0  0  0  0  0  0  0  0  0  0  0
   -3.3550   -1.4389    1.2774 H   0  0  0  0  0  0  0  0  0  0  0  0
   -3.6294   -0.9702   -0.4301 H   0  0  0  0  0  0  0  0  0  0  0  0
   -3.6287    0.2748    0.8338 H   0  0  0  0  0  0  0  0  0  0  0  0
    0.4217    1.1343   -1.3448 H   0  0  0  0  0  0  0  0  0  0  0  0
    0.4326   -1.7019   -0.2111 H   0  0  0  0  0  0  0  0  0  0  0  0
    0.3427   -1.2779   -1.9260 H   0  0  0  0  0  0  0  0  0  0  0  0
    2.6649   -1.8765   -1.2755 H   0  0  0  0  0  0  0  0  0  0  0  0
    2.5634   -0.1922   -1.7944 H   0  0  0  0  0  0  0  0  0  0  0  0
    2.5760   -1.1735    1.0942 H   0  0  0  0  0  0  0  0  0  0  0  0
    3.9165   -0.3747    0.2681 H   0  0  0  0  0  0  0  0  0  0  0  0
    2.6394    1.2274    1.6848 H   0  0  0  0  0  0  0  0  0  0  0  0
    2.5484    1.6652   -0.0231 H   0  0  0  0  0  0  0  0  0  0  0  0
    0.4174    0.1375    1.5422 H   0  0  0  0  0  0  0  0  0  0  0  0
    0.3174    1.8294    1.0359 H   0  0  0  0  0  0  0  0  0  0  0  0
  1  2  1  0  0  0  0
  2  3  1  0  0  0  0
  3  4  2  0  0  0  0
  3  5  1  0  0  0  0
  5  6  1  0  0  0  0
  6  7  1  0  0  0  0
  7  8  1  0  0  0  0
  8  9  1  0  0  0  0
  5 10  1  0  0  0  0
  9 10  1  0  0  0  0
  1 11  1  0  0  0  0
  1 12  1  0  0  0  0
  1 13  1  0  0  0  0
  5 14  1  0  0  0  0
  6 15  1  0  0  0  0
  6 16  1  0  0  0  0
  7 17  1  0  0  0  0
  7 18  1  0  0  0  0
  8 19  1  0  0  0  0
  8 20  1  0  0  0  0
  9 21  1  0  0  0  0
  9 22  1  0  0  0  0
 10 23  1  0  0  0  0
 10 24  1  0  0  0  0
M  END
