 xtb: 6.7.1 (edcfbbe)
          04152519333D

 15 14  0     0  0            999 V2000
    1.8772    0.9195   -0.2331 C   0  0  0  0  0  0  0  0  0  0  0  0
    0.9514   -0.0857    0.4374 C   0  0  0  0  0  0  0  0  0  0  0  0
   -0.3810   -0.2691   -0.2934 C   0  0  0  0  0  0  0  0  0  0  0  0
   -0.1779   -0.4546   -1.3631 H   0  0  0  0  0  0  0  0  0  0  0  0
   -1.2915    0.9512   -0.1676 C   0  0  0  0  0  0  0  0  0  0  0  0
   -0.9904   -1.4177    0.2691 O   0  0  0  0  0  0  0  0  0  0  0  0
    1.4543    1.9207   -0.2106 H   0  0  0  0  0  0  0  0  0  0  0  0
    2.0552    0.6435   -1.2703 H   0  0  0  0  0  0  0  0  0  0  0  0
    2.8336    0.9450    0.2833 H   0  0  0  0  0  0  0  0  0  0  0  0
    0.7452    0.2180    1.4649 H   0  0  0  0  0  0  0  0  0  0  0  0
    1.4348   -1.0635    0.4735 H   0  0  0  0  0  0  0  0  0  0  0  0
   -1.5007    1.1504    0.8812 H   0  0  0  0  0  0  0  0  0  0  0  0
   -0.8206    1.8249   -0.6075 H   0  0  0  0  0  0  0  0  0  0  0  0
   -2.2350    0.7759   -0.6835 H   0  0  0  0  0  0  0  0  0  0  0  0
   -1.8794   -1.5062   -0.0910 H   0  0  0  0  0  0  0  0  0  0  0  0
  1  2  1  0  0  0  0
  2  3  1  0  0  0  0
  3  4  1  0  0  0  0
  3  5  1  0  0  0  0
  3  6  1  0  0  0  0
  1  7  1  0  0  0  0
  1  8  1  0  0  0  0
  1  9  1  0  0  0  0
  2 10  1  0  0  0  0
  2 11  1  0  0  0  0
  5 12  1  0  0  0  0
  5 13  1  0  0  0  0
  5 14  1  0  0  0  0
  6 15  1  0  0  0  0
M  END
