 xtb: 6.7.1 (edcfbbe)
          04162511403D

 26 27  0     0  0            999 V2000
   -4.3315   -1.3706   -0.3466 C   0  0  0  0  0  0  0  0  0  0  0  0
   -3.3116   -0.7206    0.4361 N   0  0  0  0  0  0  0  0  0  0  0  0
   -2.1804   -0.2307   -0.1157 C   0  0  0  0  0  0  0  0  0  0  0  0
   -1.8599   -0.3328   -1.2701 O   0  0  0  0  0  0  0  0  0  0  0  0
   -1.4492    0.4018    0.8457 O   0  0  0  0  0  0  0  0  0  0  0  0
   -0.2003    0.8948    0.4692 C   0  0  0  0  0  0  0  0  0  0  0  0
   -0.0301    2.2503    0.3834 C   0  0  0  0  0  0  0  0  0  0  0  0
    1.2222    2.7822    0.0462 C   0  0  0  0  0  0  0  0  0  0  0  0
    2.2768    1.9538   -0.2124 C   0  0  0  0  0  0  0  0  0  0  0  0
    2.1305    0.5533   -0.1314 C   0  0  0  0  0  0  0  0  0  0  0  0
    0.8710    0.0010    0.2238 C   0  0  0  0  0  0  0  0  0  0  0  0
    0.7404   -1.3991    0.3255 C   0  0  0  0  0  0  0  0  0  0  0  0
    1.8038   -2.2180    0.0679 C   0  0  0  0  0  0  0  0  0  0  0  0
    3.0454   -1.6764   -0.2969 C   0  0  0  0  0  0  0  0  0  0  0  0
    3.2054   -0.3226   -0.3901 C   0  0  0  0  0  0  0  0  0  0  0  0
   -4.5374   -2.3681    0.0457 H   0  0  0  0  0  0  0  0  0  0  0  0
   -3.9557   -1.4529   -1.3650 H   0  0  0  0  0  0  0  0  0  0  0  0
   -5.2555   -0.7884   -0.3494 H   0  0  0  0  0  0  0  0  0  0  0  0
   -3.4845   -0.5297    1.4097 H   0  0  0  0  0  0  0  0  0  0  0  0
   -0.8676    2.9035    0.5750 H   0  0  0  0  0  0  0  0  0  0  0  0
    1.3368    3.8540   -0.0163 H   0  0  0  0  0  0  0  0  0  0  0  0
    3.2408    2.3590   -0.4838 H   0  0  0  0  0  0  0  0  0  0  0  0
   -0.2125   -1.8199    0.6104 H   0  0  0  0  0  0  0  0  0  0  0  0
    1.6943   -3.2897    0.1446 H   0  0  0  0  0  0  0  0  0  0  0  0
    3.8738   -2.3394   -0.4999 H   0  0  0  0  0  0  0  0  0  0  0  0
    4.1612    0.1005   -0.6646 H   0  0  0  0  0  0  0  0  0  0  0  0
  1  2  1  0  0  0  0
  2  3  4  0  0  0  0
  3  4  2  0  0  0  0
  3  5  1  0  0  0  0
  5  6  1  0  0  0  0
  6  7  2  0  0  0  0
  7  8  4  0  0  0  0
  8  9  2  0  0  0  0
  9 10  4  0  0  0  0
  6 11  4  0  0  0  0
 10 11  4  0  0  0  0
 11 12  4  0  0  0  0
 12 13  2  0  0  0  0
 13 14  4  0  0  0  0
 10 15  4  0  0  0  0
 14 15  2  0  0  0  0
  1 16  1  0  0  0  0
  1 17  1  0  0  0  0
  1 18  1  0  0  0  0
  2 19  1  0  0  0  0
  7 20  1  0  0  0  0
  8 21  1  0  0  0  0
  9 22  1  0  0  0  0
 12 23  1  0  0  0  0
 13 24  1  0  0  0  0
 14 25  1  0  0  0  0
 15 26  1  0  0  0  0
M  END
