 xtb: 6.7.1 (edcfbbe)
          04152519433D

 15 14  0     0  0            999 V2000
   -1.3799   -0.8513    0.3917 C   0  0  0  0  0  0  0  0  0  0  0  0
   -0.5851    0.0907   -0.5135 C   0  0  0  0  0  0  0  0  0  0  0  0
   -0.6612    1.5256    0.0013 C   0  0  0  0  0  0  0  0  0  0  0  0
    0.8812   -0.3578   -0.6299 C   0  0  0  0  0  0  0  0  0  0  0  0
    1.5826   -0.3357    0.5885 O   0  0  0  0  0  0  0  0  0  0  0  0
   -2.4372   -0.5994    0.3579 H   0  0  0  0  0  0  0  0  0  0  0  0
   -1.0520   -0.7650    1.4265 H   0  0  0  0  0  0  0  0  0  0  0  0
   -1.2655   -1.8852    0.0704 H   0  0  0  0  0  0  0  0  0  0  0  0
   -1.0117    0.0465   -1.5214 H   0  0  0  0  0  0  0  0  0  0  0  0
   -0.1444    1.6061    0.9549 H   0  0  0  0  0  0  0  0  0  0  0  0
   -1.6963    1.8300    0.1369 H   0  0  0  0  0  0  0  0  0  0  0  0
   -0.1878    2.2074   -0.7010 H   0  0  0  0  0  0  0  0  0  0  0  0
    0.9188   -1.3647   -1.0739 H   0  0  0  0  0  0  0  0  0  0  0  0
    1.4235    0.3258   -1.2876 H   0  0  0  0  0  0  0  0  0  0  0  0
    1.1321   -0.9217    1.2064 H   0  0  0  0  0  0  0  0  0  0  0  0
  1  2  1  0  0  0  0
  2  3  1  0  0  0  0
  2  4  1  0  0  0  0
  4  5  1  0  0  0  0
  1  6  1  0  0  0  0
  1  7  1  0  0  0  0
  1  8  1  0  0  0  0
  2  9  1  0  0  0  0
  3 10  1  0  0  0  0
  3 11  1  0  0  0  0
  3 12  1  0  0  0  0
  4 13  1  0  0  0  0
  4 14  1  0  0  0  0
  5 15  1  0  0  0  0
M  END
