 xtb: 6.7.1 (edcfbbe)
          04152520063D

 20 20  0     0  0            999 V2000
   -2.3328    1.1568    0.4299 C   0  0  0  0  0  0  0  0  0  0  0  0
   -1.6116    0.0470   -0.1452 N   0  0  0  0  0  0  0  0  0  0  0  0
   -2.3345   -1.1881   -0.3305 C   0  0  0  0  0  0  0  0  0  0  0  0
   -0.2347    0.0205   -0.0657 C   0  0  0  0  0  0  0  0  0  0  0  0
    0.4953    1.1520    0.3231 C   0  0  0  0  0  0  0  0  0  0  0  0
    1.8755    1.1338    0.3566 C   0  0  0  0  0  0  0  0  0  0  0  0
    2.5809   -0.0057    0.0118 C   0  0  0  0  0  0  0  0  0  0  0  0
    1.8744   -1.1330   -0.3684 C   0  0  0  0  0  0  0  0  0  0  0  0
    0.4942   -1.1273   -0.4058 C   0  0  0  0  0  0  0  0  0  0  0  0
   -3.4010    1.0012    0.2955 H   0  0  0  0  0  0  0  0  0  0  0  0
   -2.0657    2.0857   -0.0783 H   0  0  0  0  0  0  0  0  0  0  0  0
   -2.1330    1.2739    1.5025 H   0  0  0  0  0  0  0  0  0  0  0  0
   -2.0613   -1.6467   -1.2831 H   0  0  0  0  0  0  0  0  0  0  0  0
   -3.4020   -0.9804   -0.3573 H   0  0  0  0  0  0  0  0  0  0  0  0
   -2.1428   -1.9096    0.4739 H   0  0  0  0  0  0  0  0  0  0  0  0
   -0.0107    2.0610    0.6042 H   0  0  0  0  0  0  0  0  0  0  0  0
    2.4055    2.0253    0.6611 H   0  0  0  0  0  0  0  0  0  0  0  0
    3.6598   -0.0157    0.0417 H   0  0  0  0  0  0  0  0  0  0  0  0
    2.4035   -2.0364   -0.6375 H   0  0  0  0  0  0  0  0  0  0  0  0
   -0.0126   -2.0305   -0.7036 H   0  0  0  0  0  0  0  0  0  0  0  0
  1  2  1  0  0  0  0
  2  3  1  0  0  0  0
  2  4  1  0  0  0  0
  4  5  4  0  0  0  0
  5  6  4  0  0  0  0
  6  7  4  0  0  0  0
  7  8  4  0  0  0  0
  4  9  4  0  0  0  0
  8  9  4  0  0  0  0
  1 10  1  0  0  0  0
  1 11  1  0  0  0  0
  1 12  1  0  0  0  0
  3 13  1  0  0  0  0
  3 14  1  0  0  0  0
  3 15  1  0  0  0  0
  5 16  1  0  0  0  0
  6 17  1  0  0  0  0
  7 18  1  0  0  0  0
  8 19  1  0  0  0  0
  9 20  1  0  0  0  0
M  END
