18
CONF1
C -2.9208279799 -0.0030621592 0.0063383401
C -1.4164287631 0.0012843990 -0.0141642164
C -0.6960063937 1.1959781996 -0.0081275934
C 0.6954339013 1.1963036338 0.0075933709
C 1.4164032166 0.0019758150 0.0136727738
C 0.6949750680 -1.1943843581 0.0079503985
C -0.6944367596 -1.1947220278 -0.0082431817
C 2.9207977635 -0.0029294316 -0.0061739097
H -3.3236511885 -0.8394495208 -0.5722060933
H -3.2980901596 -0.1024449469 1.0311324915
H -3.3268309460 0.9247942477 -0.4053849270
H -1.2313063062 2.1419717491 -0.0129654895
H 1.2302628859 2.1425331619 0.0121118168
H 1.2310450163 -2.1401454943 0.0126331031
H -1.2300152086 -2.1407316522 -0.0132015042
H 3.3235493545 -0.8139448132 0.6077202924
H 3.2984934350 -0.1465210183 -1.0255334195
H 3.3265645433 0.9415329428 0.3658389292
