14
 xtb: 6.7.1 (edcfbbe)
C           -1.69204823441761        1.68350521350234        0.45253190796253
C           -1.54948849128753        0.20700327549279        0.81841073859564
C           -2.23597277497685       -0.69659765320211       -0.20476606713173
C           -0.10662191368923       -0.19348440186372        1.07838401681903
Br           1.06480912104042       -0.02317983658658       -0.52377098533159
H           -1.22985502115852        2.32949931061581        1.20581215565032
H           -1.21211883283523        1.88737083881878       -0.50927165246025
H           -2.74781698192146        1.95723291274105        0.37047541260561
H           -2.03858439698202        0.04912548556622        1.79435625396260
H           -2.13451944271421       -1.75304938332577        0.06158584154873
H           -1.79854308300138       -0.55438364331146       -1.19691934660189
H           -3.30206840914739       -0.46205676549817       -0.26665520322529
H           -0.01964336204167       -1.24124830187977        1.36791200791776
H            0.36421819827888        0.44093672169547        1.83015376578443
