20
CONF1
C -1.7984294070 0.7520641362 0.5340745712
C -0.7083285899 -0.3111604741 0.3744285933
C -0.9962180254 -1.1781824503 -0.8541811879
C 0.7082947044 0.3110599797 0.3745963667
C 1.7983723252 -0.7521987341 0.5341301216
C 0.9962997556 1.1784037987 -0.8537553964
H -2.7820447204 0.2854586852 0.6503717851
H -1.6169972053 1.3806026463 1.4123587682
H -1.8502483003 1.4047892394 -0.3438653405
H -0.7538616683 -0.9626316575 1.2597713656
H -1.0400792724 -0.5708448550 -1.7647211668
H -0.2400039768 -1.9549816079 -1.0008120548
H -1.9646940255 -1.6774935153 -0.7483938161
H 0.7537131998 0.9623050977 1.2601110373
H 1.6171347057 -1.3805738329 1.4125712815
H 1.8499228751 -1.4050773110 -0.3437102762
H 2.7820457920 -0.2856290789 0.6500880370
H 1.0404084952 0.5712890661 -1.7644330793
H 1.9646903252 1.6778166523 -0.7476628572
H 0.2400058519 1.9551376796 -1.0003346593
