 xtb: 6.7.1 (edcfbbe)
          04152519433D

 15 14  0     0  0            999 V2000
    1.3067   -0.9502   -0.3740 C   0  0  0  0  0  0  0  0  0  0  0  0
    0.5266    0.0694    0.4606 C   0  0  0  0  0  0  0  0  0  0  0  0
    0.7290    1.4870   -0.0820 C   0  0  0  0  0  0  0  0  0  0  0  0
   -0.8412   -0.2739    0.6197 O   0  0  0  0  0  0  0  0  0  0  0  0
   -1.6263   -0.3192   -0.5467 C   0  0  0  0  0  0  0  0  0  0  0  0
    2.3724   -0.7719   -0.2608 H   0  0  0  0  0  0  0  0  0  0  0  0
    1.0820   -1.9587   -0.0348 H   0  0  0  0  0  0  0  0  0  0  0  0
    1.0558   -0.8676   -1.4292 H   0  0  0  0  0  0  0  0  0  0  0  0
    0.8953    0.0331    1.4932 H   0  0  0  0  0  0  0  0  0  0  0  0
    0.4854    1.5401   -1.1408 H   0  0  0  0  0  0  0  0  0  0  0  0
    1.7677    1.7789    0.0452 H   0  0  0  0  0  0  0  0  0  0  0  0
    0.0990    2.1870    0.4616 H   0  0  0  0  0  0  0  0  0  0  0  0
   -1.2667   -1.0710   -1.2569 H   0  0  0  0  0  0  0  0  0  0  0  0
   -1.6771    0.6532   -1.0475 H   0  0  0  0  0  0  0  0  0  0  0  0
   -2.6258   -0.5973   -0.2159 H   0  0  0  0  0  0  0  0  0  0  0  0
  1  2  1  0  0  0  0
  2  3  1  0  0  0  0
  2  4  1  0  0  0  0
  4  5  1  0  0  0  0
  1  6  1  0  0  0  0
  1  7  1  0  0  0  0
  1  8  1  0  0  0  0
  2  9  1  0  0  0  0
  3 10  1  0  0  0  0
  3 11  1  0  0  0  0
  3 12  1  0  0  0  0
  5 13  1  0  0  0  0
  5 14  1  0  0  0  0
  5 15  1  0  0  0  0
M  END
