29
 xtb: 6.7.1 (edcfbbe)
C           -3.70258452117237        0.27444341496586       -0.11679850520792
C           -2.21692457887508        0.29157006232937        0.23330176818240
H           -2.11032130365245        0.56456091273764        1.29400478254103
C           -1.44351532048543        1.31858277167939       -0.59593547868846
C            0.04329807361081        1.32168965056149       -0.24382349904675
C            0.68910626355924       -0.06183241449666       -0.46637652383025
H            0.52301331997260       -0.31470132108105       -1.52802122842973
C           -0.10179218591449       -1.10955863489760        0.30898035086251
O            0.41437777066797       -1.89940740526469        1.07479122263836
C           -1.59561686885372       -1.10478707269953        0.04687776837890
C            2.20191303635976       -0.12712892514831       -0.19462888748621
C            2.99444468458911        0.56172603596964       -1.30836424859148
C            2.59056352504495        0.43784783668230        1.17424652910952
H           -3.84407687766698        0.00989703020864       -1.17127217446861
H           -4.24504558368569       -0.45820370485232        0.48915847959067
H           -4.15802423304526        1.25615486583552        0.04921647320280
H           -1.57220585103867        1.08739619645089       -1.66383404140597
H           -1.86848814013990        2.31673528743297       -0.43488480704178
H            0.57506017110430        2.07072525010046       -0.84067135471245
H            0.16176798315542        1.61152937334345        0.80749413376064
H           -1.75417598703105       -1.41580210524179       -0.99726320866907
H           -2.06716598679079       -1.84757349598011        0.69672052475281
H            2.46422778517452       -1.19224709157019       -0.19548721570676
H            2.78133010389801        1.63596121565131       -1.34942044699236
H            2.76359397094446        0.13350538549990       -2.28988632920141
H            4.07030088473702        0.45039243225567       -1.13896969051323
H            3.64771643084022        0.23744079150865        1.37553750084245
H            2.00461282128318       -0.01963107923332        1.97553240325001
H            2.45249199220674        1.52423678616774        1.21240614490736
