18
CONF1
C -2.5193314324 1.0570618257 -0.0000370843
C -1.2166328515 0.3039831220 0.0002214302
C -1.2087935578 -1.0953509042 0.0007535813
C -0.0078420997 -1.7910088252 0.0002324847
C 1.2041637168 -1.1034159868 -0.0007790037
C 1.2242808823 0.2899985139 -0.0010692504
C 0.0042358312 0.9747013891 -0.0007508880
C 2.5203128638 1.0545570805 0.0007872881
H -3.1179615000 0.8065568454 -0.8825364035
H -3.1195849197 0.8043936332 0.8807205204
H -2.3554751647 2.1374037541 0.0013958098
H -2.1512406852 -1.6365671996 0.0011477934
H -0.0117410240 -2.8767691852 0.0002092036
H 2.1402316229 -1.6546377581 -0.0015036065
H 0.0106890514 2.0628928849 -0.0014524494
H 2.6091959127 1.6752185475 0.8991433683
H 3.3796517044 0.3804079630 -0.0299012477
H 2.5833509207 1.7244212640 -0.8634723657
