11
 xtb: 6.7.1 (edcfbbe)
C           -2.99921631283534        0.60918244220466        0.34623321558378
C           -1.76666383151699        0.12927871314120       -0.42511062245359
C           -0.72396539256261       -0.40810621284404        0.53292982337991
Br           0.89128044725528       -1.04023263889905       -0.42557199518837
H           -2.74149430079054        1.40743366622494        1.04953749730388
H           -3.75490377504189        0.99947458395459       -0.34076553058165
H           -3.45439069906305       -0.20751955707509        0.91557269474508
H           -1.33874619231368        0.95276717310570       -1.00598689966362
H           -2.04630648993089       -0.65365841316495       -1.13752044722539
H           -1.08287237889337       -1.27273418060493        1.09295358150416
H           -0.36692669592759        0.35489461097622        1.22598831372155
