26
 xtb: 6.7.1 (edcfbbe)
C           -1.98981975656859       -1.06188275298987       -0.81674053716885
C           -1.60223472047619       -0.21446317941733        0.39916090520663
C           -2.06367987873422        1.23431316724009        0.20991417303422
C           -0.14246738109750       -0.38186974928504        0.88047915711791
C            1.10335282495651        0.00685661256599        0.04380158487962
C            1.23228113964027       -0.81670414346663       -1.24542432534961
C            1.14399565449689        1.50094682146939       -0.30385756385558
C            2.32358622433522       -0.30890134475841        0.92830291773257
H           -1.60537146653983       -0.63779659556762       -1.74821030424758
H           -1.61460421380333       -2.08683091530832       -0.73150123776291
H           -3.08021234119095       -1.10903421715483       -0.91034454576763
H           -2.18537517302114       -0.60977755174365        1.24449172415200
H           -1.74202506740424        1.87241652544315        1.03939213501141
H           -1.68204295621956        1.66873026624393       -0.71775820447945
H           -3.15713917565107        1.27647551969211        0.15845252622946
H           -0.06507805229852        0.16813507274716        1.82956077483015
H           -0.02076508890078       -1.44281918776602        1.14286860548022
H            2.21407020326863       -0.64814288195001       -1.70248624402045
H            0.47669737282307       -0.54219238789779       -1.98432158449409
H            1.13659687731093       -1.88900039735544       -1.04229032404561
H            2.12215045882689        1.76258005067828       -0.72338965353280
H            0.98321214678161        2.12055842976307        0.58521839090725
H            0.38809831188146        1.76768784770654       -1.04564784588890
H            2.29876779108924        0.27035102254420        1.85799897110675
H            3.25393982319988       -0.06563738594434        0.40387318045698
H            2.35321124685562       -1.37164923109692        1.19321947404813
