 xtb: 6.7.1 (edcfbbe)
          04152520033D

 14 13  0     0  0            999 V2000
    2.1945    0.4528    0.1342 C   0  0  0  0  0  0  0  0  0  0  0  0
    1.2223   -0.6188   -0.3434 C   0  0  0  0  0  0  0  0  0  0  0  0
   -0.1245   -0.5490    0.3653 C   0  0  0  0  0  0  0  0  0  0  0  0
    0.0186   -0.5151    1.4489 H   0  0  0  0  0  0  0  0  0  0  0  0
   -1.0460   -1.6942   -0.0157 C   0  0  0  0  0  0  0  0  0  0  0  0
   -0.9378    0.9988   -0.0539 Cl  0  0  0  0  0  0  0  0  0  0  0  0
    3.1387    0.3689   -0.3978 H   0  0  0  0  0  0  0  0  0  0  0  0
    2.3876    0.3465    1.1996 H   0  0  0  0  0  0  0  0  0  0  0  0
    1.7846    1.4436   -0.0443 H   0  0  0  0  0  0  0  0  0  0  0  0
    1.6478   -1.6076   -0.1540 H   0  0  0  0  0  0  0  0  0  0  0  0
    1.0649   -0.5204   -1.4193 H   0  0  0  0  0  0  0  0  0  0  0  0
   -1.2054   -1.7109   -1.0914 H   0  0  0  0  0  0  0  0  0  0  0  0
   -0.6000   -2.6395    0.2872 H   0  0  0  0  0  0  0  0  0  0  0  0
   -2.0101   -1.5908    0.4763 H   0  0  0  0  0  0  0  0  0  0  0  0
  1  2  1  0  0  0  0
  2  3  1  0  0  0  0
  3  4  1  0  0  0  0
  3  5  1  0  0  0  0
  3  6  1  0  0  0  0
  1  7  1  0  0  0  0
  1  8  1  0  0  0  0
  1  9  1  0  0  0  0
  2 10  1  0  0  0  0
  2 11  1  0  0  0  0
  5 12  1  0  0  0  0
  5 13  1  0  0  0  0
  5 14  1  0  0  0  0
M  END
