20
CONF1
C -2.9913733954 1.2402771846 -0.0000496944
C -1.7555299141 0.3838239731 0.0002675578
C -1.8333515704 -1.0065074142 -0.0003573889
C -0.6767948818 -1.7904344206 -0.0005808741
C 0.5690159071 -1.1887424216 -0.0001713083
C 0.6653750768 0.2148281859 0.0004082471
C -0.4885004088 0.9884810557 0.0006801029
O 1.9490735284 0.6983677563 0.0008145377
C 2.1146203957 2.1251304728 -0.0016727371
O 1.7035347901 -1.9742324160 -0.0002969866
H -3.0260237212 1.8869165203 -0.8838956325
H -3.8942633962 0.6245865068 0.0054861567
H -3.0206569394 1.8954010523 0.8776596546
H -2.8042491990 -1.4925619175 -0.0006982673
H -0.7375450027 -2.8743452234 -0.0010685046
H -0.4185302328 2.0707651509 0.0012715200
H 3.1912964874 2.2967515535 -0.0028770839
H 1.6705874687 2.5701913837 0.8955076172
H 1.6690218839 2.5671121030 -0.8995937594
H 2.4765950269 -1.3899714941 -0.0002415945
