17
 xtb: 6.7.1 (edcfbbe)
C            1.78953130802839        0.87537910637285        0.70196733551377
C            1.27522160145017        0.06896738152220       -0.47998859386590
C            1.48250060158881       -1.43083469019514       -0.34248046854227
O           -0.12470722950034        0.39392153854190       -0.78956120642681
C           -1.08768559778781        0.10670271436854        0.11249603303660
O           -0.89900596668742       -0.39125321319139        1.19938518061447
C           -2.44693752037581        0.46138556623276       -0.43373278004438
H            1.54898595896563        1.93515877823619        0.57673437101204
H            1.36208925721867        0.52028552452530        1.64086554620154
H            2.87901664812108        0.77810444560627        0.75018204637714
H            1.77503621365126        0.41513505421976       -1.39096128516284
H            2.55668080582914       -1.64243924567471       -0.33890930127326
H            1.03623865300357       -1.95887076641954       -1.19035569045678
H            1.04694261201217       -1.80852316743707        0.58398164866207
H           -3.11174139849417        0.70925331902549        0.39437083135727
H           -2.85132335504235       -0.41889640391464       -0.94492686887230
H           -2.39497104867761        1.27984606009621       -1.15301448231762
