 xtb: 6.7.1 (edcfbbe)
          04152520153D

 14 13  0     0  0            999 V2000
   -2.5668   -0.6005   -0.2335 C   0  0  0  0  0  0  0  0  0  0  0  0
   -1.3775    0.2811    0.0967 C   0  0  0  0  0  0  0  0  0  0  0  0
   -0.1813   -0.4579   -0.1613 O   0  0  0  0  0  0  0  0  0  0  0  0
    0.9733    0.1733    0.0691 C   0  0  0  0  0  0  0  0  0  0  0  0
    1.0447    1.3070    0.4637 O   0  0  0  0  0  0  0  0  0  0  0  0
    2.1483   -0.7256   -0.2150 C   0  0  0  0  0  0  0  0  0  0  0  0
   -3.4876   -0.0571   -0.0432 H   0  0  0  0  0  0  0  0  0  0  0  0
   -2.5363   -0.8941   -1.2793 H   0  0  0  0  0  0  0  0  0  0  0  0
   -2.5494   -1.4976    0.3794 H   0  0  0  0  0  0  0  0  0  0  0  0
   -1.3843    0.5843    1.1497 H   0  0  0  0  0  0  0  0  0  0  0  0
   -1.3695    1.1891   -0.5166 H   0  0  0  0  0  0  0  0  0  0  0  0
    2.4881   -1.1583    0.7241 H   0  0  0  0  0  0  0  0  0  0  0  0
    2.9610   -0.1403   -0.6353 H   0  0  0  0  0  0  0  0  0  0  0  0
    1.8564   -1.5239   -0.8896 H   0  0  0  0  0  0  0  0  0  0  0  0
  1  2  1  0  0  0  0
  2  3  1  0  0  0  0
  3  4  1  0  0  0  0
  4  5  2  0  0  0  0
  4  6  1  0  0  0  0
  1  7  1  0  0  0  0
  1  8  1  0  0  0  0
  1  9  1  0  0  0  0
  2 10  1  0  0  0  0
  2 11  1  0  0  0  0
  6 12  1  0  0  0  0
  6 13  1  0  0  0  0
  6 14  1  0  0  0  0
M  END
