14
 xtb: 6.7.1 (edcfbbe)
C            2.46624458891757       -0.53516549197677        0.18833895237310
C            1.24732840985773        0.23269772289499       -0.32938613735169
C           -0.03928744303069       -0.17953224407592        0.37361135685886
H            0.03082095853905        0.03711943498204        1.44457247978674
C           -0.44690878512067       -1.62200093148651        0.14819263449783
Cl          -1.40191378215450        0.91386556730076       -0.22289893789592
H            3.38059286277930       -0.13678116261215       -0.26008198508474
H            2.41510216053232       -1.59932206187911       -0.05851647208321
H            2.56212764508341       -0.44308622499181        1.27590074581194
H            1.12836230330444        0.07478347105029       -1.40767493536086
H            1.39850155880972        1.30645106528714       -0.17928493089582
H           -1.40536640093313       -1.83863419905838        0.62464212355512
H           -0.53195669224562       -1.83622143014773       -0.92147717941897
H            0.30587711415279       -2.29057589799313        0.57929743130734
