12
CONF1
C -3.5571261954 -0.0000389103 0.0000505672
C -2.8590137139 -1.2047973215 0.0000558931
C -1.4648574077 -1.2146053023 0.0000333078
C -0.7877761388 0.0000325630 -0.0000137954
C -1.4649204094 1.2146350763 0.0000008675
C -2.8590760886 1.2047554953 0.0000342057
I 1.3347472778 0.0000887295 0.0000068189
H -4.6421436670 -0.0000675613 0.0000601118
H -3.3952132042 -2.1486698235 0.0000694927
H -0.9231942472 -2.1534280937 0.0000247036
H -0.9233035467 2.1534846844 -0.0000195392
H -3.3953259245 2.1485993065 0.0000291148
