22
CONF1
C 2.4195655754 1.1588707073 0.0000281149
C 1.2707836092 1.9245406924 0.0000205704
C 0.0000037764 1.2977760673 0.0000042105
C -1.2707732604 1.9245463785 -0.0000106650
C -2.4195585472 1.1588813696 -0.0000211770
C -2.3896918221 -0.2590845038 -0.0000022215
C -1.1701107345 -0.8935025566 0.0000163514
C 0.0000007866 -0.1135274962 0.0000021478
C 1.1701087570 -0.8935077964 -0.0000158351
C 2.3896926348 -0.2590950654 0.0000028133
C 0.7822509091 -2.3558960199 -0.0001166675
C -0.7822598653 -2.3558926116 0.0001130907
H 3.3845975550 1.6569503374 0.0000453765
H 1.3372904745 3.0087630842 0.0000304043
H -1.3372752868 3.0087690750 -0.0000167669
H -3.3845883571 1.6569652022 -0.0000395353
H -3.3219732208 -0.8161999409 0.0000068347
H 3.3219715252 -0.8162147817 -0.0000091695
H 1.1835999136 -2.8717891891 -0.8790806040
H 1.1838968824 -2.8720530055 0.8785531786
H -1.1839084233 -2.8720453375 -0.8785580379
H -1.1836111167 -2.8717861283 0.8790758123
