12
CONF1
C -1.9007955511 -0.0000000471 0.0000138455
C -1.2035957976 -1.2066718941 0.0000162800
C 0.1899996117 -1.2177649057 0.0000006441
C 0.8482491742 -0.0000001501 -0.0000131452
C 0.1899996863 1.2177646454 -0.0000268876
C -1.2035957284 1.2066717474 -0.0000158703
F 2.2096838608 -0.0000001909 -0.0000359834
H -2.9855930107 -0.0000000601 0.0000242465
H -1.7427204145 -2.1485304634 0.0000336326
H 0.7551395058 -2.1435252487 0.0000055422
H 0.7551396709 2.1435249392 -0.0000442794
H -1.7427202335 2.1485303840 -0.0000157516
