12
 xtb: 6.7.1 (edcfbbe)
C           -1.97380655176260        0.45474680756892       -0.06166091013142
C           -0.89028074538429       -0.60436571002749        0.12354983581036
C            0.56619125958416       -0.16829699737760        0.02439084211009
O            1.47635505728194       -0.97136607970282        0.15971709400254
N            0.79750248457043        1.15467808833492       -0.22078731705432
H           -2.96550840624580        0.00357636889295        0.03288988351532
H           -1.90662251962507        1.24244775021808        0.69685196119304
H           -1.92542050025316        0.91710997395653       -1.05373271408971
H           -1.00660464198587       -1.40851338145418       -0.61156930156408
H           -0.98602077515458       -1.08735404575069        1.10243694081106
H            0.05878624805666        1.82473044402760       -0.33437260180322
H            1.75321163987458        1.46256559945216       -0.28922352620504
