 xtb: 6.7.1 (edcfbbe)
          04162510173D

 22 23  0     0  0            999 V2000
   -1.1887    0.8987    1.0354 C   0  0  0  0  0  0  0  0  0  0  0  0
   -0.5109    0.2182    0.0342 C   0  0  0  0  0  0  0  0  0  0  0  0
   -1.2263   -0.5737   -0.8630 C   0  0  0  0  0  0  0  0  0  0  0  0
   -2.6131   -0.6721   -0.7631 C   0  0  0  0  0  0  0  0  0  0  0  0
   -3.2896    0.0213    0.2405 C   0  0  0  0  0  0  0  0  0  0  0  0
   -2.5668    0.8044    1.1406 C   0  0  0  0  0  0  0  0  0  0  0  0
   -3.3876    1.6558    2.3824 Cl  0  0  0  0  0  0  0  0  0  0  0  0
   -4.9936   -0.0960    0.3632 Cl  0  0  0  0  0  0  0  0  0  0  0  0
   -3.4881   -1.6449   -1.8682 Cl  0  0  0  0  0  0  0  0  0  0  0  0
   -0.3956   -1.4541   -2.0795 Cl  0  0  0  0  0  0  0  0  0  0  0  0
    0.9597    0.3295   -0.0825 C   0  0  0  0  0  0  0  0  0  0  0  0
    1.5460    1.0299   -1.1364 C   0  0  0  0  0  0  0  0  0  0  0  0
    2.9226    1.1273   -1.2572 C   0  0  0  0  0  0  0  0  0  0  0  0
    3.7365    0.5185   -0.3147 C   0  0  0  0  0  0  0  0  0  0  0  0
    3.1797   -0.1848    0.7541 C   0  0  0  0  0  0  0  0  0  0  0  0
    1.7923   -0.2711    0.8600 C   0  0  0  0  0  0  0  0  0  0  0  0
    1.0924   -1.1489    2.1582 Cl  0  0  0  0  0  0  0  0  0  0  0  0
    4.1848   -0.9360    1.9213 Cl  0  0  0  0  0  0  0  0  0  0  0  0
    5.4393    0.6346   -0.4638 Cl  0  0  0  0  0  0  0  0  0  0  0  0
    0.5401    1.8063   -2.2912 Cl  0  0  0  0  0  0  0  0  0  0  0  0
   -0.6396    1.5100    1.7334 H   0  0  0  0  0  0  0  0  0  0  0  0
    3.3604    1.6721   -2.0775 H   0  0  0  0  0  0  0  0  0  0  0  0
  1  2  4  0  0  0  0
  2  3  4  0  0  0  0
  3  4  4  0  0  0  0
  4  5  4  0  0  0  0
  1  6  4  0  0  0  0
  5  6  4  0  0  0  0
  6  7  1  0  0  0  0
  5  8  1  0  0  0  0
  4  9  1  0  0  0  0
  3 10  1  0  0  0  0
  2 11  1  0  0  0  0
 11 12  4  0  0  0  0
 12 13  4  0  0  0  0
 13 14  4  0  0  0  0
 14 15  4  0  0  0  0
 11 16  4  0  0  0  0
 15 16  4  0  0  0  0
 16 17  1  0  0  0  0
 15 18  1  0  0  0  0
 14 19  1  0  0  0  0
 12 20  1  0  0  0  0
  1 21  1  0  0  0  0
 13 22  1  0  0  0  0
M  END
