 xtb: 6.7.1 (edcfbbe)
          04152519543D

 15 16  0     0  0            999 V2000
    1.9046   -1.4542   -0.0000 C   0  0  0  0  0  0  0  0  0  0  0  0
    2.5836   -0.2364    0.0001 C   0  0  0  0  0  0  0  0  0  0  0  0
    1.8938    0.9529    0.0001 C   0  0  0  0  0  0  0  0  0  0  0  0
    0.4925    0.9782    0.0000 C   0  0  0  0  0  0  0  0  0  0  0  0
   -0.1854   -0.2592   -0.0001 C   0  0  0  0  0  0  0  0  0  0  0  0
    0.5321   -1.4611   -0.0001 C   0  0  0  0  0  0  0  0  0  0  0  0
   -1.6047   -0.3313   -0.0002 N   0  0  0  0  0  0  0  0  0  0  0  0
   -2.2368    0.7251   -0.0002 O   0  0  0  0  0  0  0  0  0  0  0  0
   -2.1353   -1.4193   -0.0002 O   0  0  0  0  0  0  0  0  0  0  0  0
   -0.1105    2.1620    0.0001 O   0  0  0  0  0  0  0  0  0  0  0  0
    2.4526   -2.3824   -0.0001 H   0  0  0  0  0  0  0  0  0  0  0  0
    3.6628   -0.2249    0.0002 H   0  0  0  0  0  0  0  0  0  0  0  0
    2.4058    1.9017    0.0002 H   0  0  0  0  0  0  0  0  0  0  0  0
   -0.0280   -2.3838   -0.0002 H   0  0  0  0  0  0  0  0  0  0  0  0
   -1.0883    2.0282   -0.0000 H   0  0  0  0  0  0  0  0  0  0  0  0
  1  2  4  0  0  0  0
  2  3  4  0  0  0  0
  3  4  4  0  0  0  0
  4  5  4  0  0  0  0
  1  6  2  0  0  0  0
  5  6  4  0  0  0  0
  5  7  1  0  0  0  0
  7  8  4  0  0  0  0
  7  9  4  0  0  0  0
  8  9  1  0  0  0  0
  4 10  1  0  0  0  0
  1 11  1  0  0  0  0
  2 12  1  0  0  0  0
  3 13  1  0  0  0  0
  6 14  1  0  0  0  0
 10 15  1  0  0  0  0
M  END
