 xtb: 6.7.1 (edcfbbe)
          04152519583D

 21 21  0     0  0            999 V2000
   -2.3390    0.1531   -1.2586 C   0  0  0  0  0  0  0  0  0  0  0  0
   -1.6951   -0.4329   -0.0002 C   0  0  0  0  0  0  0  0  0  0  0  0
   -2.3380    0.1498    1.2601 C   0  0  0  0  0  0  0  0  0  0  0  0
   -0.2043   -0.1972   -0.0003 C   0  0  0  0  0  0  0  0  0  0  0  0
    0.3209    1.0898    0.0005 C   0  0  0  0  0  0  0  0  0  0  0  0
    1.6880    1.2972    0.0006 C   0  0  0  0  0  0  0  0  0  0  0  0
    2.5566    0.2191   -0.0001 C   0  0  0  0  0  0  0  0  0  0  0  0
    2.0466   -1.0669   -0.0008 C   0  0  0  0  0  0  0  0  0  0  0  0
    0.6776   -1.2700   -0.0010 C   0  0  0  0  0  0  0  0  0  0  0  0
   -1.8764   -0.2649   -2.1502 H   0  0  0  0  0  0  0  0  0  0  0  0
   -2.2213    1.2335   -1.2862 H   0  0  0  0  0  0  0  0  0  0  0  0
   -3.4022   -0.0767   -1.2795 H   0  0  0  0  0  0  0  0  0  0  0  0
   -1.8689   -1.5151   -0.0016 H   0  0  0  0  0  0  0  0  0  0  0  0
   -1.8750   -0.2708    2.1503 H   0  0  0  0  0  0  0  0  0  0  0  0
   -3.4013   -0.0797    1.2811 H   0  0  0  0  0  0  0  0  0  0  0  0
   -2.2200    1.2301    1.2906 H   0  0  0  0  0  0  0  0  0  0  0  0
   -0.3421    1.9427    0.0011 H   0  0  0  0  0  0  0  0  0  0  0  0
    2.0782    2.3050    0.0012 H   0  0  0  0  0  0  0  0  0  0  0  0
    3.6246    0.3813    0.0000 H   0  0  0  0  0  0  0  0  0  0  0  0
    2.7159   -1.9152   -0.0014 H   0  0  0  0  0  0  0  0  0  0  0  0
    0.2879   -2.2788   -0.0016 H   0  0  0  0  0  0  0  0  0  0  0  0
  1  2  1  0  0  0  0
  2  3  1  0  0  0  0
  2  4  1  0  0  0  0
  4  5  4  0  0  0  0
  5  6  4  0  0  0  0
  6  7  4  0  0  0  0
  7  8  4  0  0  0  0
  4  9  4  0  0  0  0
  8  9  4  0  0  0  0
  1 10  1  0  0  0  0
  1 11  1  0  0  0  0
  1 12  1  0  0  0  0
  2 13  1  0  0  0  0
  3 14  1  0  0  0  0
  3 15  1  0  0  0  0
  3 16  1  0  0  0  0
  5 17  1  0  0  0  0
  6 18  1  0  0  0  0
  7 19  1  0  0  0  0
  8 20  1  0  0  0  0
  9 21  1  0  0  0  0
M  END
