16
CONF1
C 1.2015682840 -1.2309235018 -0.6763034931
C 0.6711718480 -0.2841957467 0.4066298876
C 1.5933112991 0.9219457544 0.5629568608
C -0.7215926658 0.1599374691 -0.0210853214
O -0.9060458920 1.0836885095 -0.7706788974
C -1.8483664454 -0.6634512973 0.5503493561
H 0.5561327538 -2.0997392504 -0.7872519465
H 1.2500394214 -0.7116302414 -1.6306342635
H 2.2002284820 -1.5735981102 -0.4153327956
H 0.6034678578 -0.8283186639 1.3535885072
H 1.5939397214 1.5047433294 -0.3546438170
H 2.6092158103 0.5998279652 0.7785448152
H 1.2501876561 1.5610942366 1.3735065626
H -2.7852917181 -0.4193428647 0.0568386919
H -1.9382044376 -0.4420849443 1.6127651074
H -1.6357510774 -1.7243521018 0.4441941464
16
CONF4
C 1.1410951237 -1.4137290445 -0.3913849184
C 0.6842016453 -0.2005996625 0.4244354096
C 1.6548829229 0.9640026486 0.2546801116
C -0.7232580809 0.2085187758 0.0116394145
O -0.9753726972 1.2885717252 -0.4575367333
C -1.7886612161 -0.8418229436 0.2195940227
H 0.5121306263 -2.2798050553 -0.2039397707
H 1.1127191941 -1.1831210718 -1.4541738677
H 2.1639740968 -1.6704759498 -0.1251721607
H 0.6424835858 -0.4855602289 1.4824930291
H 1.3170417668 1.8232430221 0.8283138657
H 1.7067148491 1.2569862052 -0.7909341584
H 2.6496548446 0.6837309102 0.5923241633
H -2.7615155984 -0.3641157895 0.3039305685
H -1.5901519177 -1.4467421953 1.0993602225
H -1.8086102045 -1.4920839027 -0.6536860402
16
CONF2
C 1.3156245630 -1.0485077991 -0.8696583976
C 0.6626293289 -0.3781402453 0.3398529913
C 1.4885154026 0.8256415870 0.7992059914
C -0.7258632249 0.1120511323 -0.0539885331
O -0.9007403220 0.8693623787 -0.9736607771
C -1.8531457422 -0.4158011668 0.7954894375
H 2.3330991385 -1.3498834201 -0.6319654923
H 0.7527877070 -1.9300707712 -1.1700178789
H 1.3397576325 -0.3533937490 -1.7053231071
H 0.5820946784 -1.0979571881 1.1595742355
H 1.5314434354 1.5662732921 0.0043766808
H 2.5012506041 0.5159023579 1.0465315120
H 1.0418426816 1.2868075585 1.6778709257
H -2.8041702559 -0.0085492484 0.4631523049
H -1.6816356031 -0.1457199972 1.8355358316
H -1.8774349806 -1.5018096840 0.7293833990
16
CONF5
C 1.4550566392 -0.7081397888 -1.0547943133
C 0.6554713272 -0.4649527448 0.2215518699
C 1.3671604365 0.5537712186 1.1190558796
C -0.7380198537 0.0533527069 -0.1101820540
O -1.0336019361 0.4685700875 -1.2011101666
C -1.7210885766 0.0375768305 1.0359894537
H 1.5504617762 0.2179160560 -1.6158145731
H 2.4480461903 -1.0816506251 -0.8169120216
H 0.9483478720 -1.4341159701 -1.6859266596
H 0.5508937097 -1.4056189114 0.7727892563
H 2.3875086037 0.2277547993 1.3076531462
H 0.8606661257 0.6616306295 2.0747080698
H 1.4026589186 1.5243485207 0.6290582919
H -2.7321095375 0.1564452221 0.6552040440
H -1.5039851763 0.8740407796 1.6978807225
H -1.6433677715 -0.8820607677 1.6090649911
16
CONF6
C 1.1534045782 -1.3420985807 -0.5165780205
C 0.6817364246 -0.2294665071 0.4268721423
C 1.6410934826 0.9552038793 0.3875287313
C -0.7178962774 0.1869462450 0.0007736313
O -0.9402453982 1.2083110360 -0.5974635909
C -1.8201073902 -0.7832241593 0.3597838553
H 0.4823184751 -2.1970875032 -0.4875657321
H 1.1960436342 -0.9695906895 -1.5376490277
H 2.1482670599 -1.6743449046 -0.2291992503
H 0.6272492254 -0.6279636482 1.4458153890
H 1.3160274718 1.7290245245 1.0787996555
H 1.6618790923 1.3822319720 -0.6118239311
H 2.6459731895 0.6411143756 0.6592224869
H -1.4495283616 -1.6568594357 0.8859543727
H -2.3358260385 -1.0899865985 -0.5482458778
H -2.5477149187 -0.2664151488 0.9830019808
16
CONF3
C 1.1030633511 -1.4988644046 0.3974474630
C 0.7471779921 -0.0148007638 0.3981291980
C 1.5755930674 0.7486730474 -0.6413655773
C -0.7255876982 0.2563749280 0.1275422599
O -1.3278166273 1.1014183481 0.7414270218
C -1.3765162673 -0.5635636785 -0.9558226910
H 0.4816221690 -2.0445933497 1.1039686451
H 0.9780492418 -1.9348703058 -0.5903820260
H 2.1426815439 -1.6244871384 0.6923741888
H 0.9671761985 0.4078707725 1.3844427592
H 1.4117275979 0.3476327271 -1.6392508770
H 2.6340028429 0.6612205039 -0.4068859974
H 1.3072326730 1.8025315699 -0.6417228616
H -0.7421290462 -0.6211540662 -1.8357277553
H -2.3368124477 -0.1275570162 -1.2186127535
H -1.5405018881 -1.5734775862 -0.5848245750
16
CONF7
C 1.1308170300 -1.5397773304 0.1225657779
C 0.7160277348 -0.1009700511 0.4058884231
C 1.6342082294 0.8827220725 -0.3280113115
C -0.7305803503 0.2499112171 0.0713488381
O -1.1364752478 1.3768571746 0.2149114159
C -1.6237063057 -0.8544180520 -0.4291100856
H 2.1664316510 -1.6811891517 0.4252722453
H 0.5212103075 -2.2502766024 0.6747267947
H 1.0601764597 -1.7661576797 -0.9388298465
H 0.8170208625 0.0887973832 1.4823264133
H 1.3086211939 1.9029008117 -0.1427095724
H 1.6026076984 0.6981310658 -1.4001085867
H 2.6606511405 0.7723250417 0.0129443219
H -1.7037102307 -1.6366579293 0.3219583136
H -1.2077854245 -1.2926328186 -1.3327077460
H -2.6123338959 -0.4543641401 -0.6396348231
