 xtb: 6.7.1 (edcfbbe)
          04162511403D

 26 27  0     0  0            999 V2000
   -3.5496   -1.7857   -0.7074 C   0  0  0  0  0  0  0  0  0  0  0  0
   -3.5964   -0.5533    0.0408 N   0  0  0  0  0  0  0  0  0  0  0  0
   -2.5440    0.2441    0.3352 C   0  0  0  0  0  0  0  0  0  0  0  0
   -2.6292    1.2148    1.0437 O   0  0  0  0  0  0  0  0  0  0  0  0
   -1.4136   -0.1979   -0.2693 O   0  0  0  0  0  0  0  0  0  0  0  0
   -0.2397    0.5366   -0.1926 C   0  0  0  0  0  0  0  0  0  0  0  0
   -0.2081    1.9022   -0.2887 C   0  0  0  0  0  0  0  0  0  0  0  0
    1.0212    2.5766   -0.2510 C   0  0  0  0  0  0  0  0  0  0  0  0
    2.1942    1.8879   -0.1323 C   0  0  0  0  0  0  0  0  0  0  0  0
    2.1930    0.4802   -0.0425 C   0  0  0  0  0  0  0  0  0  0  0  0
    0.9575   -0.2169   -0.0695 C   0  0  0  0  0  0  0  0  0  0  0  0
    0.9588   -1.6232    0.0276 C   0  0  0  0  0  0  0  0  0  0  0  0
    2.1337   -2.3119    0.1451 C   0  0  0  0  0  0  0  0  0  0  0  0
    3.3576   -1.6267    0.1685 C   0  0  0  0  0  0  0  0  0  0  0  0
    3.3857   -0.2633    0.0774 C   0  0  0  0  0  0  0  0  0  0  0  0
   -4.4748   -1.8998   -1.2711 H   0  0  0  0  0  0  0  0  0  0  0  0
   -3.4267   -2.6503   -0.0479 H   0  0  0  0  0  0  0  0  0  0  0  0
   -2.7122   -1.7493   -1.4002 H   0  0  0  0  0  0  0  0  0  0  0  0
   -4.4424   -0.3404    0.5461 H   0  0  0  0  0  0  0  0  0  0  0  0
   -1.1245    2.4623   -0.3795 H   0  0  0  0  0  0  0  0  0  0  0  0
    1.0234    3.6539   -0.3215 H   0  0  0  0  0  0  0  0  0  0  0  0
    3.1399    2.4094   -0.1052 H   0  0  0  0  0  0  0  0  0  0  0  0
    0.0131   -2.1434    0.0092 H   0  0  0  0  0  0  0  0  0  0  0  0
    2.1272   -3.3894    0.2215 H   0  0  0  0  0  0  0  0  0  0  0  0
    4.2769   -2.1865    0.2606 H   0  0  0  0  0  0  0  0  0  0  0  0
    4.3258    0.2694    0.0963 H   0  0  0  0  0  0  0  0  0  0  0  0
  1  2  1  0  0  0  0
  2  3  4  0  0  0  0
  3  4  2  0  0  0  0
  3  5  1  0  0  0  0
  5  6  1  0  0  0  0
  6  7  2  0  0  0  0
  7  8  4  0  0  0  0
  8  9  2  0  0  0  0
  9 10  4  0  0  0  0
  6 11  4  0  0  0  0
 10 11  4  0  0  0  0
 11 12  4  0  0  0  0
 12 13  2  0  0  0  0
 13 14  4  0  0  0  0
 10 15  4  0  0  0  0
 14 15  2  0  0  0  0
  1 16  1  0  0  0  0
  1 17  1  0  0  0  0
  1 18  1  0  0  0  0
  2 19  1  0  0  0  0
  7 20  1  0  0  0  0
  8 21  1  0  0  0  0
  9 22  1  0  0  0  0
 12 23  1  0  0  0  0
 13 24  1  0  0  0  0
 14 25  1  0  0  0  0
 15 26  1  0  0  0  0
M  END
