13
CONF1
C 0.0022258299 1.2485896705 0.1126634127
C 1.2257120128 0.3370158245 -0.0882968321
C 0.6585224476 -1.0454156195 0.0372324492
C -0.6622615336 -1.0430700451 0.0371819144
C -1.2244975278 0.3413524191 -0.0882746610
H 0.0037239033 2.0925425882 -0.5748582801
H 0.0029895900 1.6439443838 1.1288821262
H 1.6676482491 0.4686977215 -1.0803203643
H 2.0089805548 0.5278271273 0.6468934680
H 1.2960023936 -1.9111132873 0.0937515186
H -1.3027071242 -1.9065705232 0.0937819450
H -1.6660181689 0.4746360043 -1.0802760433
H -2.0070589855 0.5349390625 0.6469437579
