28
CONF1
C -3.9976904119 -0.6990127523 0.0047436945
C -3.9976875135 0.6990488351 0.0048894908
C -2.7997046821 1.3945046038 0.0019422864
C -1.5846046883 0.7009957373 -0.0006181464
C -1.5846077570 -0.7009704930 -0.0008677441
C -2.7997111106 -1.3944740860 0.0016099057
C -0.3187880085 -1.4642079775 -0.0032536671
O -0.3629503970 -2.7095668407 -0.0056043644
C 0.9339931600 -0.7182904618 -0.0027542314
C 2.1607443583 -1.4252801696 0.0005467383
C 3.3699506403 -0.6812764779 0.0074367394
C 3.3699535084 0.6812637083 0.0073250692
C 2.1607562010 1.4252781525 0.0003433015
C 0.9340024245 0.7183030089 -0.0027458619
C -0.3187810929 1.4642293571 -0.0025870876
O -0.3629364974 2.7095858019 -0.0045507486
N 2.2301549445 2.7782099919 -0.0050222675
N 2.2301052283 -2.7781955604 -0.0035141088
H -4.9384007083 -1.2404694672 0.0070687823
H -4.9383960894 1.2405089004 0.0073230165
H -2.7735561220 2.4782505602 0.0019772546
H -2.7735691025 -2.4782196727 0.0013511403
H 4.3139626124 -1.2196141022 0.0119955782
H 4.3139700943 1.2195956961 0.0116509112
H 3.1240593048 3.2337094404 0.0170862151
H 1.3534860641 3.2892203198 0.0015111971
H 1.3534443625 -3.2892447268 -0.0007451782
H 3.1240987142 -3.2337735719 0.0121480805
