 xtb: 6.7.1 (edcfbbe)
          04152519093D

 13 13  0     0  0            999 V2000
   -3.4749    0.3751   -0.0000 C   0  0  0  0  0  0  0  0  0  0  0  0
   -2.7180    1.5356    0.0000 C   0  0  0  0  0  0  0  0  0  0  0  0
   -1.3376    1.4531    0.0000 C   0  0  0  0  0  0  0  0  0  0  0  0
   -0.7251    0.2144    0.0000 C   0  0  0  0  0  0  0  0  0  0  0  0
   -1.4678   -0.9639    0.0000 C   0  0  0  0  0  0  0  0  0  0  0  0
   -2.8588   -0.8593    0.0000 C   0  0  0  0  0  0  0  0  0  0  0  0
   -0.9246   -2.1960    0.0000 O   0  0  0  0  0  0  0  0  0  0  0  0
    1.4017    0.0999    0.0000 I   0  0  0  0  0  0  0  0  0  0  0  0
   -4.5525    0.4314   -0.0000 H   0  0  0  0  0  0  0  0  0  0  0  0
   -3.1953    2.5028    0.0000 H   0  0  0  0  0  0  0  0  0  0  0  0
   -0.7378    2.3500    0.0000 H   0  0  0  0  0  0  0  0  0  0  0  0
   -3.4286   -1.7748   -0.0000 H   0  0  0  0  0  0  0  0  0  0  0  0
    0.0445   -2.1356    0.0000 H   0  0  0  0  0  0  0  0  0  0  0  0
  1  2  4  0  0  0  0
  2  3  4  0  0  0  0
  3  4  4  0  0  0  0
  4  5  4  0  0  0  0
  1  6  4  0  0  0  0
  5  6  4  0  0  0  0
  5  7  1  0  0  0  0
  4  8  1  0  0  0  0
  1  9  1  0  0  0  0
  2 10  1  0  0  0  0
  3 11  1  0  0  0  0
  6 12  1  0  0  0  0
  7 13  1  0  0  0  0
M  END
