24
 xtb: 6.7.1 (edcfbbe)
C           -3.09519143109723       -0.91642113334883        0.23050857847356
O           -1.89969855864427       -0.61652328317224       -0.51757939722375
C           -1.09586772564881        0.32000329529979        0.04500225988926
O           -1.35422997725647        0.85891385075819        1.09668846032340
C            0.10434926252653        0.61772720519638       -0.83926481950619
C            0.80263008599450       -0.66213758393044       -1.33561729061297
C            1.51945637877513       -1.38118466329307       -0.19165302855889
C            2.53111061791505       -0.45436902948242        0.48750861329196
C            1.85246977956021        0.81956971314483        0.99634952489020
C            1.09870279432346        1.54128030441697       -0.12464699893592
H           -2.83935487141007       -1.31912942854652        1.21421486718490
H           -3.63175222851828       -1.65795788744467       -0.36136424595257
H           -3.69965175377959       -0.01503049842506        0.36197939710671
H           -0.31433564877960        1.14008260159639       -1.71207713329757
H            0.08162803601423       -1.32255381565651       -1.82419787384656
H            1.54153317145189       -0.36810727720207       -2.09264592944860
H            0.77980426859255       -1.71909562267615        0.54882392015803
H            2.01715725059799       -2.28088528183583       -0.57119803807444
H            3.02905674846082       -0.97393136324391        1.31412552475387
H            3.31311473195169       -0.18795393132520       -0.23807454683749
H            1.14615801345618        0.56411895732984        1.79492846738546
H            2.59496945672638        1.49670045497640        1.43379746327217
H            0.57345773272452        2.41436602139205        0.27357936632304
H            1.81760839076347        1.90135441849126       -0.87238581136065
