12
CONF6
C -1.5666173565 0.0666422891 -0.5545809407
C -0.6641295357 -0.4480947417 0.5648504972
C 0.6613597343 0.2886283139 0.6413921345
O 1.3675302841 0.0631413415 -0.5852119668
H -1.0749214333 -0.0372311226 -1.5248021529
H -2.5092755010 -0.4876926750 -0.5866250437
H -1.8036042148 1.1264441632 -0.4084746238
H -0.4601176857 -1.5164243472 0.4239805307
H -1.1653213611 -0.3440782925 1.5352181087
H 0.4793981152 1.3658438950 0.7908547213
H 1.2464448927 -0.0815366880 1.4979256574
H 2.1869402765 0.5665612523 -0.5573716269
12
CONF4
C -1.9545771658 0.1064857830 -0.0274163193
C -0.5668160835 -0.5278694420 0.0261485507
C 0.5320102718 0.5164737459 -0.0258501017
O 1.7923689784 -0.1614865221 0.0288917080
H -2.7372186493 -0.6560131224 0.0076612607
H -2.1134024359 0.7857332821 0.8171172952
H -2.0920510250 0.6825026906 -0.9489066532
H -0.4300869108 -1.2208312380 -0.8121205417
H -0.4486708210 -1.1142617595 0.9446475805
H 0.4436240881 1.1029371756 -0.9552452753
H 0.4252466213 1.2117457638 0.8231640436
H 2.4911968092 0.4993842854 -0.0039168913
12
CONF3
C -1.5992211828 0.0809459654 -0.5186065918
C -0.6778802674 -0.4602389820 0.5731634128
C 0.6761630836 0.2400565511 0.6135181312
O 1.4458663176 0.0459076243 -0.5762908634
H -1.1847076134 -0.0962680691 -1.5170924697
H -2.5775321843 -0.4071097668 -0.4898944185
H -1.7605987497 1.1589095982 -0.4011592839
H -0.5152746045 -1.5348736105 0.4289668783
H -1.1541897314 -0.3356170140 1.5545068688
H 0.5372045768 1.3155436375 0.8139135709
H 1.2871909749 -0.1700680150 1.4239738436
H 1.0011145236 0.5043983092 -1.2962568052
12
CONF2
C -1.5907029114 0.1627699546 0.5005628744
C -0.6777497613 -0.4893057941 -0.5350200927
C 0.6834906407 0.1903583568 -0.6375145860
O 1.4110488895 0.1729463670 0.5947829413
H -2.5480838536 -0.3616215614 0.5733973260
H -1.1205010633 0.1593680517 1.4876171208
H -1.7960449203 1.2053970367 0.2345659527
H -1.1482114697 -0.4638211004 -1.5269422730
H -0.5306073739 -1.5518258191 -0.2938266649
H 1.2769198796 -0.2661690048 -1.4453152484
H 0.5555461892 1.2513781400 -0.8806428699
H 1.5867803031 -0.7478461708 0.8181658221
12
CONF1
C -1.9597032164 0.1475758787 -0.0056320682
C -0.5892280190 -0.5273209823 0.0253955475
C 0.5448623961 0.4877899543 -0.0268550332
O 1.8398858458 -0.1129333896 0.0593357959
H -2.0862802077 0.7449036998 -0.9148082534
H -2.7659497618 -0.5901591189 0.0237346067
H -2.0870474337 0.8158191215 0.8524432022
H -0.4964224730 -1.2159749073 -0.8260586968
H -0.4787625595 -1.1299733911 0.9342101793
H 0.4579652928 1.1030468769 -0.9378073831
H 0.4806208201 1.1657745833 0.8314909984
H 1.9325544051 -0.7162390966 -0.6861749196
12
CONF5
C -1.9568499364 0.1516692607 -0.0298716113
C -0.5839576213 -0.5165755900 0.0232040915
C 0.5472080375 0.4987009174 -0.0231487543
O 1.8487941180 -0.0995419260 0.0246717444
H -2.7593263321 -0.5900267449 0.0017862798
H -2.0951715977 0.8319537672 0.8167109983
H -2.0742585592 0.7336410661 -0.9497601552
H -0.4768294684 -1.2106061990 -0.8219381225
H -0.4952952689 -1.1095993346 0.9439748142
H 0.4736794716 1.0912476915 -0.9466598435
H 0.4550520124 1.1936372035 0.8243382072
H 1.7366093278 -1.0528745394 0.0841220738
