24
 xtb: 6.7.1 (edcfbbe)
C           -2.13311381027398       -0.89718055573530       -0.31235241752876
C           -1.18507335455520       -0.33383587317620        0.75721240107418
H           -1.80153847186247       -0.36099758437669        1.67248484987431
C           -0.76765330137982        1.13224480355437        0.56369303775581
H           -1.63166745736877        1.70405606835389        0.18273938751044
C            0.41688943195602        1.30524697784424       -0.39927741807143
H            0.84427828977126        2.30232303671016       -0.23623131094063
C            1.53359988929793        0.29190429332262       -0.10147890284456
H            2.21116641091213        0.25612833052432       -0.96007669733581
C            1.04970309010813       -1.15106585429510        0.17074963304260
H            1.84487718786173       -1.64041782576618        0.74193063154955
O           -0.06992112853222       -1.16308574454092        1.07297920148016
O            0.85350953209568       -1.92063992152472       -0.97526483616578
O            2.29652809096228        0.75933892679112        1.00744621246163
O           -0.01587744814357        1.18381634615435       -1.77113543327527
O           -0.31140041588094        1.69663058098752        1.80305185188342
O           -1.63110513135082       -0.98487209606279       -1.64150263443185
H           -3.05446048317754       -0.29150232814530       -0.28754138270877
H           -2.39217556614610       -1.91827050661063       -0.01640960442189
H            0.00879840501011       -1.66524539374884       -1.39828170912167
H            1.67223161318806        0.93421493678784        1.72668345824297
H           -0.32413454962929        2.04851131273449       -2.06386156929166
H           -0.88407426424330        1.38383486341943        2.51293222765359
H           -1.26736552297433       -0.11268332998859       -1.88963910076496
