24
CONF1
C -2.8985244576 -1.6474523704 0.0000168647
N -2.6982792696 -0.2072937317 -0.0025636712
C -3.8833312682 0.6374956001 0.0015054301
C -1.4546170697 0.3946393208 -0.0006455311
O -1.3070826580 1.6108984180 -0.0004343092
N -0.3915995164 -0.5010965750 0.0007075159
C 0.9828753801 -0.2165818622 0.0003291091
C 1.5224456558 1.0752539784 0.0004731936
C 2.9045394052 1.2360493745 0.0001862051
C 3.7663948579 0.1449105818 -0.0001866008
C 3.2263248274 -1.1381637943 -0.0003371444
C 1.8513231388 -1.3187978570 -0.0001166962
H -2.4769727033 -2.1307927900 -0.8934227013
H -3.9713749964 -1.8495353579 -0.0043646182
H -2.4844980100 -2.1271530717 0.8990545949
H -4.4985319652 0.4489965588 -0.8878525503
H -3.5655553239 1.6798402752 -0.0008310604
H -4.4917830463 0.4510444299 0.8960281472
H -0.6057767351 -1.4834573396 0.0013483506
H 0.8636254497 1.9306066669 0.0008101930
H 3.3088663704 2.2434931306 0.0003042359
H 4.8411346728 0.2898046076 -0.0003811740
H 3.8766331418 -2.0072667555 -0.0006972514
H 1.4425661640 -2.3266718701 -0.0003426160
