10
 xtb: 6.7.1 (edcfbbe)
C            1.51915894838616        0.55794095645637        0.03707365189990
C            0.81869161222850       -0.56938710166955       -0.03222890224812
C           -0.67665080631696       -0.66122138475812        0.02159571908232
O           -1.34698132032422        0.59085956415891        0.03389203397159
H            2.60201503591282        0.54962556557965       -0.01783370645745
H            1.03243375417200        1.51918713700168        0.16949526859962
H            1.33233677657003       -1.52396824902126       -0.14392438745417
H           -0.97880251511513       -1.17310270742009        0.94457561818314
H           -1.02877990193205       -1.29375598024540       -0.81174413364269
H           -1.10809617950720        1.05600184922413       -0.77591458518979
