9
CONF1
C -1.6413405346 -0.4815723619 0.0000007922
C -0.6046375704 0.6502110669 0.0000674374
C 0.7515761754 0.1401979754 0.0006686816
N 1.8279824819 -0.2883251893 -0.0006380318
H -1.5323610850 -1.1077324094 0.8886198617
H -2.6430169044 -0.0459408407 -0.0001967316
H -1.5320915620 -1.1078999632 -0.8884647937
H -0.7207713769 1.2888240928 0.8824256849
H -0.7204087320 1.2886369199 -0.8824723864
