 xtb: 6.7.1 (edcfbbe)
          04152519393D

 19 19  0     0  0            999 V2000
   -2.8318    1.3413   -0.2507 C   0  0  0  0  0  0  0  0  0  0  0  0
   -2.3708   -0.0463    0.1787 C   0  0  0  0  0  0  0  0  0  0  0  0
   -0.8851   -0.2893    0.1037 C   0  0  0  0  0  0  0  0  0  0  0  0
   -0.4184   -1.5985    0.1682 C   0  0  0  0  0  0  0  0  0  0  0  0
    0.9364   -1.8698    0.1196 C   0  0  0  0  0  0  0  0  0  0  0  0
    1.8547   -0.8439    0.0033 C   0  0  0  0  0  0  0  0  0  0  0  0
    1.4012    0.4674   -0.0617 C   0  0  0  0  0  0  0  0  0  0  0  0
    0.0387    0.7382   -0.0098 C   0  0  0  0  0  0  0  0  0  0  0  0
    2.3233    1.4645   -0.1762 O   0  0  0  0  0  0  0  0  0  0  0  0
   -3.9189    1.3811   -0.2584 H   0  0  0  0  0  0  0  0  0  0  0  0
   -2.4747    1.5720   -1.2521 H   0  0  0  0  0  0  0  0  0  0  0  0
   -2.4749    2.1051    0.4363 H   0  0  0  0  0  0  0  0  0  0  0  0
   -2.8685   -0.7945   -0.4442 H   0  0  0  0  0  0  0  0  0  0  0  0
   -2.6937   -0.2258    1.2096 H   0  0  0  0  0  0  0  0  0  0  0  0
   -1.1266   -2.4094    0.2573 H   0  0  0  0  0  0  0  0  0  0  0  0
    1.2826   -2.8914    0.1702 H   0  0  0  0  0  0  0  0  0  0  0  0
    2.9148   -1.0346   -0.0390 H   0  0  0  0  0  0  0  0  0  0  0  0
   -0.2876    1.7677   -0.0605 H   0  0  0  0  0  0  0  0  0  0  0  0
    1.8758    2.3185   -0.2116 H   0  0  0  0  0  0  0  0  0  0  0  0
  1  2  1  0  0  0  0
  2  3  1  0  0  0  0
  3  4  4  0  0  0  0
  4  5  4  0  0  0  0
  5  6  4  0  0  0  0
  6  7  4  0  0  0  0
  3  8  4  0  0  0  0
  7  8  4  0  0  0  0
  7  9  1  0  0  0  0
  1 10  1  0  0  0  0
  1 11  1  0  0  0  0
  1 12  1  0  0  0  0
  2 13  1  0  0  0  0
  2 14  1  0  0  0  0
  4 15  1  0  0  0  0
  5 16  1  0  0  0  0
  6 17  1  0  0  0  0
  8 18  1  0  0  0  0
  9 19  1  0  0  0  0
M  END
