7
CONF2
C 0.2390199778 0.0208159408 0.0301840799
N -1.3921025186 0.0111418732 -0.2161628425
O -1.8664295883 0.9789773983 -0.7526458761
O -1.9412781429 -0.9897573158 0.1720562510
Cl 0.8712947716 -1.3538608831 -0.8896162000
Cl 0.9052989103 1.5418733309 -0.5353281274
Cl 0.4739058091 -0.1907424155 1.7706181104
