22
 xtb: 6.7.1 (edcfbbe)
C           -1.20671329869217        1.02204236676837        0.90744206552901
C           -0.51719059020027        0.20381679763501        0.02112030129119
C           -1.22507921743498       -0.71229218612419       -0.75960229287854
C           -2.61738962645912       -0.80667801586264       -0.65549573104250
C           -3.30651993769548        0.02265195896456        0.24265698154492
C           -2.58624165543570        0.93505037952508        1.02133266785868
Cl          -3.39818294139968        1.97809043510434        2.14683526505041
Cl          -5.02371641549899       -0.08360405831696        0.38344397993600
Cl          -3.48652369097684       -1.93968043151017       -1.62666443657482
Cl          -0.35494034542678       -1.73267081249312       -1.85871052759397
C            0.95607715688273        0.31930452454124       -0.08636163962138
C            1.55077289645263        1.15945254990768       -1.03015592867016
C            2.92703326014431        1.28059795540003       -1.14314561285692
C            3.74167413037758        0.54630355318019       -0.29156495600691
C            3.19465621814449       -0.30811593452520        0.67265710021916
C            1.79989821550095       -0.41000464939842        0.75905948029101
Cl           1.08355130123037       -1.47652712332672        1.92451607864120
Cl           4.21580241732123       -1.21633237121802        1.72687492320606
Cl           5.46189164126818        0.71226671331844       -0.44953350685120
Cl           0.54187477228470        2.08193530009293       -2.11177417368605
H           -0.66260840829045        1.73326955592324        1.51745512318162
H            3.36575500848221        1.93602305500148       -1.88412606775466
