11
CONF2
C 1.7631350677 0.6322987626 0.0101013668
C 0.4491138744 -0.0836393359 -0.1353692522
O 0.3187077304 -1.2446795321 -0.4436997211
O -0.5919953280 0.7355281402 0.1520923848
C -1.8896732386 0.1070539697 0.0798278881
H 1.6495881907 1.7137666860 -0.0699987687
H 2.4592507219 0.2565644174 -0.7408021568
H 2.1739849183 0.3962132463 0.9971406769
H -2.0697029867 -0.2795017225 -0.9263226850
H -2.6063774491 0.8896889879 0.3273764260
H -1.9537766084 -0.7170350698 0.7949478674
