 xtb: 6.7.1 (edcfbbe)
          04162509443D

 10 10  0     0  0            999 V2000
   -1.7257    0.6528    0.5016 C   0  0  0  0  0  0  0  0  0  0  0  0
   -0.8318    0.1879   -0.6404 C   0  0  0  0  0  0  0  0  0  0  0  0
    0.4936   -0.1824   -0.1021 N   0  0  0  0  0  0  0  0  0  0  0  0
    0.8401   -1.3315   -0.2208 O   0  0  0  0  0  0  0  0  0  0  0  0
    1.1344    0.6927    0.4254 O   0  0  0  0  0  0  0  0  0  0  0  0
   -1.9114   -0.1608    1.1991 H   0  0  0  0  0  0  0  0  0  0  0  0
   -1.2491    1.4722    1.0348 H   0  0  0  0  0  0  0  0  0  0  0  0
   -2.6778    0.9969    0.1081 H   0  0  0  0  0  0  0  0  0  0  0  0
   -0.6793    1.0021   -1.3526 H   0  0  0  0  0  0  0  0  0  0  0  0
   -1.2414   -0.6873   -1.1463 H   0  0  0  0  0  0  0  0  0  0  0  0
  1  2  1  0  0  0  0
  2  3  1  0  0  0  0
  3  4  4  0  0  0  0
  3  5  4  0  0  0  0
  4  5  1  0  0  0  0
  1  6  1  0  0  0  0
  1  7  1  0  0  0  0
  1  8  1  0  0  0  0
  2  9  1  0  0  0  0
  2 10  1  0  0  0  0
M  END
