24
 xtb: 6.7.1 (edcfbbe)
C           -2.13968138050952       -0.91703668977023       -0.29297404884843
C           -1.20208266355260       -0.32611077861994        0.75732420003686
H           -1.76961316514009       -0.34574137195201        1.69627071444908
C           -0.76257287963576        1.13194760593005        0.56752964140720
H           -1.61901459411325        1.71607589299546        0.20986745008068
C            0.38884313373620        1.29999450239849       -0.44246499554464
H            0.79610267633810        2.30807267978329       -0.27690844968980
C            1.52385797597699        0.30039855292009       -0.13353137537516
H            2.19517265782846        0.24577913380071       -1.00059478602180
C            1.05352950835615       -1.12010415571922        0.19889548608688
H            1.84988425970480       -1.61486477348523        0.76748338636306
O           -0.06450549737587       -1.17970636602060        1.04652728750702
O            0.84965092121381       -1.82926488550671       -1.03485656386415
O            2.23600879187210        0.70269596078547        1.05290383927838
O           -0.01700123596995        1.25853073600056       -1.79274812219016
O           -0.39856284109534        1.68671363759765        1.83187036629689
O           -1.66750502218366       -0.91356602318394       -1.64008983125764
H           -3.06254908556716       -0.32591747892901       -0.28879979877910
H           -2.39375468858014       -1.94081077092622        0.01877619811237
H            0.81247583570813       -2.76832344769071       -0.81309469116653
H            2.57379444771346        1.59371793453188        0.90232524155474
H           -0.68697217688026        0.55330771546760       -1.89802339157646
H            0.42234205176282        1.24886018851949        2.10286014955063
H           -0.84150938580682       -1.43531926636895       -1.64624185704501
