12
CONF1
C -1.1010367380 0.1916773613 0.0023206064
C -0.1916957413 -1.1011679073 -0.0024137102
C 1.1010441449 -0.1916751516 0.0024517432
C 0.1917031804 1.1011711152 -0.0023591361
F 0.3208372157 1.8531966594 -1.1064693267
F 0.3229070252 1.8654816164 1.0927993338
F 1.8654451552 -0.3229358399 -1.0926300414
F 1.8530022193 -0.3207552072 1.1066064142
F -0.3230409444 -1.8655047125 1.0927102330
F -0.3206857016 -1.8531676994 -1.1065580341
F -1.8531296170 0.3207241484 1.1063888635
F -1.8653045603 0.3229702441 -1.0928499813
