19
 xtb: 6.7.1 (edcfbbe)
C           -2.67343013062390       -0.56388480265630       -0.75571601955648
C           -1.85028318444344       -0.59359135126670        0.53967476481839
C           -0.37928825284751       -0.39853626984144        0.28893980328387
C            0.50648142136460       -1.47346851662753        0.24001813561584
C            1.86343302069698       -1.30010191706636       -0.02068232805484
C            2.35825615117217       -0.01921454853868       -0.23669871590963
C            1.49842829568772        1.07349275683466       -0.19505355802959
C            0.14268741066372        0.88267115165190        0.06321676269782
O           -0.73980090624513        1.93274785081206        0.11362048927986
H           -2.35693358362674       -1.36392459681982       -1.43203018875988
H           -2.54420453990339        0.39020765196539       -1.27385276903266
H           -3.73874429425919       -0.69574284777913       -0.54249251224605
H           -1.99671456950670       -1.55408634620698        1.04549513702673
H           -2.21347795917460        0.18737080889616        1.21589854741862
H            0.11537326208027       -2.47240918836959        0.41522313020779
H            2.52759618490792       -2.15703372031650       -0.04846850406444
H            3.41330293660465        0.13686854885146       -0.43667039509594
H            1.88169904776423        2.07792112273839       -0.36158379717803
H           -0.25611951599224        2.75218497173214       -0.03788703261708
