 xtb: 6.7.1 (edcfbbe)
          04152521333D

 24 24  0     0  0            999 V2000
   -3.0610   -0.9007    0.2081 C   0  0  0  0  0  0  0  0  0  0  0  0
   -1.9025   -0.5430   -0.5306 O   0  0  0  0  0  0  0  0  0  0  0  0
   -1.0724    0.3294    0.0616 C   0  0  0  0  0  0  0  0  0  0  0  0
   -1.2891    0.8011    1.1464 O   0  0  0  0  0  0  0  0  0  0  0  0
    0.1107    0.6537   -0.8325 C   0  0  0  0  0  0  0  0  0  0  0  0
    0.7799   -0.6224   -1.3560 C   0  0  0  0  0  0  0  0  0  0  0  0
    1.4688   -1.3755   -0.2222 C   0  0  0  0  0  0  0  0  0  0  0  0
    2.5056   -0.4834    0.4529 C   0  0  0  0  0  0  0  0  0  0  0  0
    1.8417    0.7751    1.0018 C   0  0  0  0  0  0  0  0  0  0  0  0
    1.1247    1.5408   -0.1072 C   0  0  0  0  0  0  0  0  0  0  0  0
   -2.7794   -1.3487    1.1633 H   0  0  0  0  0  0  0  0  0  0  0  0
   -3.6041   -1.6161   -0.4040 H   0  0  0  0  0  0  0  0  0  0  0  0
   -3.6742   -0.0185    0.4033 H   0  0  0  0  0  0  0  0  0  0  0  0
   -0.3082    1.2023   -1.6855 H   0  0  0  0  0  0  0  0  0  0  0  0
    0.0337   -1.2574   -1.8350 H   0  0  0  0  0  0  0  0  0  0  0  0
    1.5227   -0.3432   -2.1069 H   0  0  0  0  0  0  0  0  0  0  0  0
    0.7241   -1.6863    0.5142 H   0  0  0  0  0  0  0  0  0  0  0  0
    1.9466   -2.2752   -0.6162 H   0  0  0  0  0  0  0  0  0  0  0  0
    2.9954   -1.0280    1.2626 H   0  0  0  0  0  0  0  0  0  0  0  0
    3.2717   -0.2052   -0.2753 H   0  0  0  0  0  0  0  0  0  0  0  0
    1.1171    0.5018    1.7697 H   0  0  0  0  0  0  0  0  0  0  0  0
    2.5908    1.4216    1.4632 H   0  0  0  0  0  0  0  0  0  0  0  0
    0.6098    2.4027    0.3200 H   0  0  0  0  0  0  0  0  0  0  0  0
    1.8555    1.9023   -0.8342 H   0  0  0  0  0  0  0  0  0  0  0  0
  1  2  1  0  0  0  0
  2  3  1  0  0  0  0
  3  4  2  0  0  0  0
  3  5  1  0  0  0  0
  5  6  1  0  0  0  0
  6  7  1  0  0  0  0
  7  8  1  0  0  0  0
  8  9  1  0  0  0  0
  5 10  1  0  0  0  0
  9 10  1  0  0  0  0
  1 11  1  0  0  0  0
  1 12  1  0  0  0  0
  1 13  1  0  0  0  0
  5 14  1  0  0  0  0
  6 15  1  0  0  0  0
  6 16  1  0  0  0  0
  7 17  1  0  0  0  0
  7 18  1  0  0  0  0
  8 19  1  0  0  0  0
  8 20  1  0  0  0  0
  9 21  1  0  0  0  0
  9 22  1  0  0  0  0
 10 23  1  0  0  0  0
 10 24  1  0  0  0  0
M  END
