17
 xtb: 6.7.1 (edcfbbe)
C           -0.18646981826493       -2.29493422373097       -0.48140119097719
C            0.50246841754277       -0.99086371761899       -0.19989441793231
C            1.89783080405914       -0.96360368808571       -0.09717637026944
C            2.59966597228985        0.20548593501609        0.16761840192432
C            1.91769675931468        1.40253673109101        0.36614367988324
C            0.53382237691851        1.41266390387285        0.30141926622306
C           -0.14776939980942        0.23467626888232        0.00829684024675
N           -1.61822849208675        0.33773897589305       -0.07311105716272
O           -2.20770587052558       -0.45461465662888       -0.79983162257966
O           -2.15983284118958        1.21919085849616        0.58366179075502
H            0.52287092960418       -3.11613635187783       -0.35556102785525
H           -1.03844507204857       -2.45958943850613        0.18239189247181
H           -0.57879171687949       -2.31984865160389       -1.50130150641533
H            2.44096325681872       -1.89417172141139       -0.23067275639278
H            3.68290554853171        0.17938291787096        0.22588495300280
H            2.45749545973802        2.31944055493585        0.57506127275088
H           -0.03486172253711        2.31943673208057        0.46545086551548
