 xtb: 6.7.1 (edcfbbe)
          04152520073D

 11 10  0     0  0            999 V2000
   -2.5180    0.1986    0.0001 C   0  0  0  0  0  0  0  0  0  0  0  0
   -1.1594   -0.3975    0.0001 C   0  0  0  0  0  0  0  0  0  0  0  0
   -0.0195    0.2948   -0.0001 C   0  0  0  0  0  0  0  0  0  0  0  0
    1.2864   -0.3496   -0.0000 C   0  0  0  0  0  0  0  0  0  0  0  0
    2.3462    0.2251   -0.0001 O   0  0  0  0  0  0  0  0  0  0  0  0
   -2.4752    1.2843   -0.0002 H   0  0  0  0  0  0  0  0  0  0  0  0
   -3.0707   -0.1375    0.8774 H   0  0  0  0  0  0  0  0  0  0  0  0
   -3.0710   -0.1380   -0.8768 H   0  0  0  0  0  0  0  0  0  0  0  0
   -1.1209   -1.4808    0.0002 H   0  0  0  0  0  0  0  0  0  0  0  0
   -0.0184    1.3763   -0.0002 H   0  0  0  0  0  0  0  0  0  0  0  0
    1.2393   -1.4583    0.0001 H   0  0  0  0  0  0  0  0  0  0  0  0
  1  2  1  0  0  0  0
  2  3  2  0  0  0  0
  3  4  1  0  0  0  0
  4  5  2  0  0  0  0
  1  6  1  0  0  0  0
  1  7  1  0  0  0  0
  1  8  1  0  0  0  0
  2  9  1  0  0  0  0
  3 10  1  0  0  0  0
  4 11  1  0  0  0  0
M  END
