14
CONF1
C -1.1955935805 -1.2006372141 0.0091602861
C 0.1845591190 -1.2030695796 0.0021962082
C 0.8712198742 0.0000477089 -0.0006058686
C 0.1845458374 1.2031203129 0.0021395434
C -1.1956450262 1.2005683729 0.0091412493
C -1.9086123085 -0.0000370483 0.0113317446
N -3.2843264726 0.0000375534 -0.0543686485
Cl 2.6045759423 -0.0000067840 -0.0030713054
H -1.7341055477 -2.1370205700 0.0109265350
H 0.7277070985 -2.1350420045 0.0020962527
H 0.7275602232 2.1351621669 0.0021364123
H -1.7341307224 2.1369630270 0.0109039172
H -3.7507056117 -0.8488826159 0.2192977875
H -3.7506497549 0.8486254960 0.2206450387
