10
 xtb: 6.7.1 (edcfbbe)
C           -0.71557386360961       -0.61598361557445        0.26367734796352
C            0.71921830867332       -0.62254148638651       -0.23751799560156
O            1.44767653283333        0.55530061398648        0.09131736697804
O           -1.45046883805412        0.54295117832950       -0.11426365800007
H           -0.73090946459211       -0.63415822488759        1.36174346527369
H           -1.20825829027046       -1.54014457516234       -0.08409788126240
H            0.73478735974289       -0.68667345032944       -1.33385565715696
H            1.21703721082655       -1.52854119012192        0.14861145315487
H            1.21771446312745        0.80950713457578        0.99220814675772
H           -1.22167043661344        0.76025238079725       -1.02504352397501
