 xtb: 6.7.1 (edcfbbe)
          04152519473D

 19 19  0     0  0            999 V2000
   -2.6463   -1.4814   -0.2291 C   0  0  0  0  0  0  0  0  0  0  0  0
   -1.9507   -0.1512    0.0202 C   0  0  0  0  0  0  0  0  0  0  0  0
   -0.4476   -0.1877   -0.0305 C   0  0  0  0  0  0  0  0  0  0  0  0
    0.2991   -1.3299   -0.2620 C   0  0  0  0  0  0  0  0  0  0  0  0
    1.6849   -1.2912   -0.2954 C   0  0  0  0  0  0  0  0  0  0  0  0
    2.3480   -0.0965   -0.0954 C   0  0  0  0  0  0  0  0  0  0  0  0
    1.6227    1.0593    0.1384 C   0  0  0  0  0  0  0  0  0  0  0  0
    0.2376    1.0178    0.1715 C   0  0  0  0  0  0  0  0  0  0  0  0
   -0.5049    2.1414    0.4001 O   0  0  0  0  0  0  0  0  0  0  0  0
   -2.3989   -1.8705   -1.2143 H   0  0  0  0  0  0  0  0  0  0  0  0
   -3.7245   -1.3455   -0.1790 H   0  0  0  0  0  0  0  0  0  0  0  0
   -2.3621   -2.2158    0.5213 H   0  0  0  0  0  0  0  0  0  0  0  0
   -2.2437    0.2369    1.0004 H   0  0  0  0  0  0  0  0  0  0  0  0
   -2.2923    0.5838   -0.7146 H   0  0  0  0  0  0  0  0  0  0  0  0
   -0.2006   -2.2721   -0.4206 H   0  0  0  0  0  0  0  0  0  0  0  0
    2.2427   -2.1973   -0.4781 H   0  0  0  0  0  0  0  0  0  0  0  0
    3.4267   -0.0565   -0.1198 H   0  0  0  0  0  0  0  0  0  0  0  0
    2.1326    2.0014    0.2965 H   0  0  0  0  0  0  0  0  0  0  0  0
    0.0852    2.8948    0.5209 H   0  0  0  0  0  0  0  0  0  0  0  0
  1  2  1  0  0  0  0
  2  3  1  0  0  0  0
  3  4  4  0  0  0  0
  4  5  4  0  0  0  0
  5  6  4  0  0  0  0
  6  7  4  0  0  0  0
  3  8  4  0  0  0  0
  7  8  4  0  0  0  0
  8  9  1  0  0  0  0
  1 10  1  0  0  0  0
  1 11  1  0  0  0  0
  1 12  1  0  0  0  0
  2 13  1  0  0  0  0
  2 14  1  0  0  0  0
  4 15  1  0  0  0  0
  5 16  1  0  0  0  0
  6 17  1  0  0  0  0
  7 18  1  0  0  0  0
  9 19  1  0  0  0  0
M  END
