15
 xtb: 6.7.1 (edcfbbe)
C            2.08210445288923       -1.02788775064495        0.00001302502604
C            2.32899608355183        0.35184388534156        0.00006607206915
C            1.29519223921763        1.27288675370073        0.00011533854634
C           -0.03029864890495        0.82707294157076        0.00011346924821
C           -0.29601496569202       -0.56626277707581       -0.00021172195404
C            0.77600742722789       -1.47430837250483       -0.00010595490518
C           -1.65962493737052       -1.04735174692607       -0.00106042697493
O           -2.65314072172039       -0.31773119022225        0.00035504300343
O           -1.01870783621100        1.72859278042411        0.00001685363361
H            2.90708445516252       -1.73069933689582       -0.00000000708086
H            3.35352420233974        0.71083138195581        0.00009911137161
H            1.48548581773220        2.34027721280849        0.00010924258833
H            0.55442062988586       -2.53864350728937       -0.00015176927473
H           -1.78515373555012       -2.14950768395823        0.00109794775838
H           -1.86823419877406        1.21905712741309       -0.00002119746849
