 xtb: 6.7.1 (edcfbbe)
          04152520063D

 24 25  0     0  0            999 V2000
   -2.6701   -1.6862    0.8310 C   0  0  0  0  0  0  0  0  0  0  0  0
   -2.3233   -1.0078   -0.4965 C   0  0  0  0  0  0  0  0  0  0  0  0
   -1.2964    0.0724   -0.2946 C   0  0  0  0  0  0  0  0  0  0  0  0
   -1.7081    1.3771   -0.1898 C   0  0  0  0  0  0  0  0  0  0  0  0
   -0.8019    2.4210    0.0387 C   0  0  0  0  0  0  0  0  0  0  0  0
    0.5304    2.1536    0.1665 C   0  0  0  0  0  0  0  0  0  0  0  0
    1.0049    0.8295    0.0676 C   0  0  0  0  0  0  0  0  0  0  0  0
    0.0865   -0.2310   -0.1661 C   0  0  0  0  0  0  0  0  0  0  0  0
    0.6020   -1.5426   -0.2614 C   0  0  0  0  0  0  0  0  0  0  0  0
    1.9395   -1.7917   -0.1274 C   0  0  0  0  0  0  0  0  0  0  0  0
    2.8398   -0.7430    0.1078 C   0  0  0  0  0  0  0  0  0  0  0  0
    2.3791    0.5391    0.2002 C   0  0  0  0  0  0  0  0  0  0  0  0
   -1.7859   -2.1347    1.2778 H   0  0  0  0  0  0  0  0  0  0  0  0
   -3.4158   -2.4632    0.6773 H   0  0  0  0  0  0  0  0  0  0  0  0
   -3.0697   -0.9558    1.5311 H   0  0  0  0  0  0  0  0  0  0  0  0
   -3.2301   -0.5644   -0.9135 H   0  0  0  0  0  0  0  0  0  0  0  0
   -1.9638   -1.7525   -1.2086 H   0  0  0  0  0  0  0  0  0  0  0  0
   -2.7593    1.6116   -0.2863 H   0  0  0  0  0  0  0  0  0  0  0  0
   -1.1690    3.4344    0.1129 H   0  0  0  0  0  0  0  0  0  0  0  0
    1.2404    2.9484    0.3455 H   0  0  0  0  0  0  0  0  0  0  0  0
   -0.0685   -2.3675   -0.4455 H   0  0  0  0  0  0  0  0  0  0  0  0
    2.3118   -2.8032   -0.2038 H   0  0  0  0  0  0  0  0  0  0  0  0
    3.8935   -0.9573    0.2120 H   0  0  0  0  0  0  0  0  0  0  0  0
    3.0629    1.3573    0.3781 H   0  0  0  0  0  0  0  0  0  0  0  0
  1  2  1  0  0  0  0
  2  3  1  0  0  0  0
  3  4  2  0  0  0  0
  4  5  4  0  0  0  0
  5  6  2  0  0  0  0
  6  7  4  0  0  0  0
  3  8  4  0  0  0  0
  7  8  4  0  0  0  0
  8  9  4  0  0  0  0
  9 10  2  0  0  0  0
 10 11  4  0  0  0  0
  7 12  4  0  0  0  0
 11 12  2  0  0  0  0
  1 13  1  0  0  0  0
  1 14  1  0  0  0  0
  1 15  1  0  0  0  0
  2 16  1  0  0  0  0
  2 17  1  0  0  0  0
  4 18  1  0  0  0  0
  5 19  1  0  0  0  0
  6 20  1  0  0  0  0
  9 21  1  0  0  0  0
 10 22  1  0  0  0  0
 11 23  1  0  0  0  0
 12 24  1  0  0  0  0
M  END
