8
CONF1
C -1.4698640834 0.0003962012 -0.1015178505
C -0.0459979765 0.0000256901 0.3751709157
F 0.6152987284 1.1061675692 -0.1106796441
F 0.6145265060 -1.1068348122 -0.1100842573
H -1.4861598011 -0.0004597351 -1.1940726801
H -1.9838692325 -0.8894212208 0.2695364330
H -1.9829069485 0.8913515386 0.2681339933
H 0.0716256030 0.0002744757 1.4665000234
