8
CONF1
C 0.0000844496 -1.8120498249 -0.1634983574
C 0.0000226577 -0.4318541759 0.4423684282
Cl -1.4835776106 0.4821327470 -0.0506431559
Cl 1.4833582829 0.4824248991 -0.0509902329
H -0.0001993647 -1.7540978175 -1.2536270571
H 0.8913931157 -2.3532896288 0.1657806466
H -0.8908990483 -2.3535577954 0.1662262851
H 0.0001601371 -0.4410347234 1.5328480855
