8
CONF1
C -0.7936496245 0.0001387843 -0.0000269194
C 0.7936540194 -0.0001231832 0.0000302724
Cl 1.3942844333 -1.5506955580 0.6542528020
Cl 1.3944249023 0.2088636364 -1.6700439166
Cl 1.3944199762 1.3420446529 1.0158339354
Cl -1.3944318754 -0.2088802570 1.6700366536
Cl -1.3944010998 -1.3420476929 -1.0158214822
Cl -1.3943272253 1.5506851056 -0.6542538580
