 xtb: 6.7.1 (edcfbbe)
          04152519083D

 10  9  0     0  0            999 V2000
   -1.3607   -0.8891    0.2237 C   0  0  0  0  0  0  0  0  0  0  0  0
    0.0000    0.1803   -0.4323 S   0  0  0  0  0  0  0  0  0  0  0  0
    0.0002    1.3820    0.3996 O   0  0  0  0  0  0  0  0  0  0  0  0
    1.3605   -0.8895    0.2237 C   0  0  0  0  0  0  0  0  0  0  0  0
   -2.3017   -0.4035   -0.0131 H   0  0  0  0  0  0  0  0  0  0  0  0
   -1.2602   -0.9847    1.2990 H   0  0  0  0  0  0  0  0  0  0  0  0
   -1.3085   -1.8561   -0.2626 H   0  0  0  0  0  0  0  0  0  0  0  0
    2.3015   -0.4042   -0.0132 H   0  0  0  0  0  0  0  0  0  0  0  0
    1.3079   -1.8565   -0.2625 H   0  0  0  0  0  0  0  0  0  0  0  0
    1.2599   -0.9850    1.2990 H   0  0  0  0  0  0  0  0  0  0  0  0
  1  2  1  0  0  0  0
  2  3  2  0  0  0  0
  2  4  1  0  0  0  0
  1  5  1  0  0  0  0
  1  6  1  0  0  0  0
  1  7  1  0  0  0  0
  4  8  1  0  0  0  0
  4  9  1  0  0  0  0
  4 10  1  0  0  0  0
M  END
