14
CONF1
C -2.4158298520 -0.0691244257 -0.0076869665
C -1.8472044580 -1.3400411929 -0.0017153238
C -0.4624543413 -1.4643725696 0.0082258454
C 0.3317700056 -0.3280454281 0.0135859410
C -0.2144906408 0.9649568737 0.0112621883
C -1.6148314153 1.0621079545 -0.0015235065
N 0.5785268841 2.0969004004 0.0818397462
Cl 2.0841215744 -0.5102015601 0.0167163340
H -3.4946650945 0.0447448281 -0.0171112309
H -2.4695540264 -2.2273128438 -0.0058918246
H 0.0094495136 -2.4400932248 0.0090093359
H -2.0670187074 2.0498614844 0.0017854202
H 1.5327376003 1.9785961150 -0.2221723497
H 0.1517291886 2.9390485503 -0.2692826848
