 xtb: 6.7.1 (edcfbbe)
          04152520163D

 16 16  0     0  0            999 V2000
   -2.7726    0.4033    0.0003 C   0  0  0  0  0  0  0  0  0  0  0  0
   -1.7903   -0.6026    0.0001 O   0  0  0  0  0  0  0  0  0  0  0  0
   -0.4778   -0.2326    0.0001 C   0  0  0  0  0  0  0  0  0  0  0  0
   -0.0194    1.0796   -0.0000 C   0  0  0  0  0  0  0  0  0  0  0  0
    1.3431    1.3324   -0.0000 C   0  0  0  0  0  0  0  0  0  0  0  0
    2.2561    0.2953    0.0000 C   0  0  0  0  0  0  0  0  0  0  0  0
    1.7993   -1.0140    0.0001 C   0  0  0  0  0  0  0  0  0  0  0  0
    0.4462   -1.2788    0.0001 C   0  0  0  0  0  0  0  0  0  0  0  0
   -2.7053    1.0327   -0.8933 H   0  0  0  0  0  0  0  0  0  0  0  0
   -2.7050    1.0327    0.8938 H   0  0  0  0  0  0  0  0  0  0  0  0
   -3.7286   -0.1182    0.0005 H   0  0  0  0  0  0  0  0  0  0  0  0
   -0.7081    1.9101   -0.0001 H   0  0  0  0  0  0  0  0  0  0  0  0
    1.6874    2.3564   -0.0001 H   0  0  0  0  0  0  0  0  0  0  0  0
    3.3154    0.5026   -0.0000 H   0  0  0  0  0  0  0  0  0  0  0  0
    2.5033   -1.8329    0.0001 H   0  0  0  0  0  0  0  0  0  0  0  0
    0.0724   -2.2907    0.0002 H   0  0  0  0  0  0  0  0  0  0  0  0
  1  2  1  0  0  0  0
  2  3  1  0  0  0  0
  3  4  4  0  0  0  0
  4  5  4  0  0  0  0
  5  6  4  0  0  0  0
  6  7  4  0  0  0  0
  3  8  4  0  0  0  0
  7  8  4  0  0  0  0
  1  9  1  0  0  0  0
  1 10  1  0  0  0  0
  1 11  1  0  0  0  0
  4 12  1  0  0  0  0
  5 13  1  0  0  0  0
  6 14  1  0  0  0  0
  7 15  1  0  0  0  0
  8 16  1  0  0  0  0
M  END
