17
 xtb: 6.7.1 (edcfbbe)
C           -1.73877267324117        0.35112705611844        0.58723875566071
C           -0.88456296480007        0.34258007012779       -0.68080089209112
C            0.58436560695154       -0.07114215563972       -0.48054492579597
C            1.34040735283617        0.89993366703256        0.42996684949390
C            0.71688787970479       -1.50786626080126        0.03103035340308
H           -1.78728197690177       -0.63971603421013        1.04958274225001
H           -2.76442546248247        0.65495096602989        0.35688115937048
H           -1.35030223588619        1.05115810360631        1.33355246089877
H           -1.33952254799751       -0.33607361359619       -1.41431648914909
H           -0.90513816848711        1.34253367811077       -1.13379635031486
H            1.05594332508677       -0.02913738533079       -1.47277772566993
H            0.97128430082274        0.84689077869741        1.46002086428590
H            1.23379142102894        1.93490933076269        0.08687301721502
H            2.40865199674593        0.66050780109806        0.45365044421243
H            1.76551198908553       -1.82303588568609        0.03957761719465
H            0.15869185491808       -2.20956650023245       -0.59845758963006
H            0.34021158271356       -1.60127066112312        1.05554482738106
