 xtb: 6.7.1 (edcfbbe)
          04162511253D

 24 24  0     0  0            999 V2000
   -2.1538   -0.9533   -0.0883 C   0  0  0  0  0  0  0  0  0  0  0  0
   -1.0685   -0.3486    0.8255 C   0  0  0  0  0  0  0  0  0  0  0  0
   -1.4916   -0.3272    1.8378 H   0  0  0  0  0  0  0  0  0  0  0  0
   -0.7314    1.1212    0.4579 C   0  0  0  0  0  0  0  0  0  0  0  0
   -1.6118    1.5481   -0.0399 H   0  0  0  0  0  0  0  0  0  0  0  0
    0.4754    1.2415   -0.4855 C   0  0  0  0  0  0  0  0  0  0  0  0
    0.8206    2.2846   -0.4562 H   0  0  0  0  0  0  0  0  0  0  0  0
    1.6214    0.3371    0.0359 C   0  0  0  0  0  0  0  0  0  0  0  0
    2.4918    0.4368   -0.6227 H   0  0  0  0  0  0  0  0  0  0  0  0
    1.1270   -1.1133    0.0472 C   0  0  0  0  0  0  0  0  0  0  0  0
    1.8858   -1.7772    0.4887 H   0  0  0  0  0  0  0  0  0  0  0  0
    0.0585   -1.2166    0.9619 O   0  0  0  0  0  0  0  0  0  0  0  0
    0.8444   -1.5946   -1.2274 O   0  0  0  0  0  0  0  0  0  0  0  0
    1.9969    0.7179    1.3412 O   0  0  0  0  0  0  0  0  0  0  0  0
    0.1686    0.9248   -1.8259 O   0  0  0  0  0  0  0  0  0  0  0  0
   -0.5411    1.9013    1.6097 O   0  0  0  0  0  0  0  0  0  0  0  0
   -1.8314   -0.9335   -1.4572 O   0  0  0  0  0  0  0  0  0  0  0  0
   -3.0677   -0.3656    0.0231 H   0  0  0  0  0  0  0  0  0  0  0  0
   -2.3473   -1.9784    0.2466 H   0  0  0  0  0  0  0  0  0  0  0  0
    0.7724   -0.8306   -1.8338 H   0  0  0  0  0  0  0  0  0  0  0  0
    1.6500    0.0558    1.9570 H   0  0  0  0  0  0  0  0  0  0  0  0
   -0.7301    0.5392   -1.8706 H   0  0  0  0  0  0  0  0  0  0  0  0
    0.3772    1.7982    1.9042 H   0  0  0  0  0  0  0  0  0  0  0  0
   -1.1140   -1.5767   -1.5958 H   0  0  0  0  0  0  0  0  0  0  0  0
  1  2  1  0  0  0  0
  2  3  1  0  0  0  0
  2  4  1  0  0  0  0
  4  5  1  0  0  0  0
  4  6  1  0  0  0  0
  6  7  1  0  0  0  0
  6  8  1  0  0  0  0
  8  9  1  0  0  0  0
  8 10  1  0  0  0  0
 10 11  1  0  0  0  0
  2 12  1  0  0  0  0
 10 12  1  0  0  0  0
 10 13  1  0  0  0  0
  8 14  1  0  0  0  0
  6 15  1  0  0  0  0
  4 16  1  0  0  0  0
  1 17  1  0  0  0  0
  1 18  1  0  0  0  0
  1 19  1  0  0  0  0
 13 20  1  0  0  0  0
 14 21  1  0  0  0  0
 15 22  1  0  0  0  0
 16 23  1  0  0  0  0
 17 24  1  0  0  0  0
M  END
