 xtb: 6.7.1 (edcfbbe)
          04152519093D

 17 17  0     0  0            999 V2000
   -2.5579    0.9698   -0.0770 C   0  0  0  0  0  0  0  0  0  0  0  0
   -1.2316    0.2791   -0.0210 C   0  0  0  0  0  0  0  0  0  0  0  0
   -1.1509   -1.1076    0.0843 C   0  0  0  0  0  0  0  0  0  0  0  0
    0.0981   -1.6967    0.1473 C   0  0  0  0  0  0  0  0  0  0  0  0
    1.2316   -1.0160    0.1135 N   0  0  0  0  0  0  0  0  0  0  0  0
    1.1717    0.3042    0.0138 C   0  0  0  0  0  0  0  0  0  0  0  0
   -0.0400    0.9874   -0.0558 C   0  0  0  0  0  0  0  0  0  0  0  0
    2.4757    1.0393   -0.0240 C   0  0  0  0  0  0  0  0  0  0  0  0
   -3.2328    0.4486   -0.7533 H   0  0  0  0  0  0  0  0  0  0  0  0
   -3.0149    0.9731    0.9129 H   0  0  0  0  0  0  0  0  0  0  0  0
   -2.4482    1.9998   -0.4076 H   0  0  0  0  0  0  0  0  0  0  0  0
   -2.0467   -1.7094    0.1150 H   0  0  0  0  0  0  0  0  0  0  0  0
    0.2053   -2.7710    0.2286 H   0  0  0  0  0  0  0  0  0  0  0  0
   -0.0455    2.0649   -0.1378 H   0  0  0  0  0  0  0  0  0  0  0  0
    2.5285    1.7603    0.7901 H   0  0  0  0  0  0  0  0  0  0  0  0
    3.2934    0.3311    0.0691 H   0  0  0  0  0  0  0  0  0  0  0  0
    2.5763    1.5816   -0.9629 H   0  0  0  0  0  0  0  0  0  0  0  0
  1  2  1  0  0  0  0
  2  3  4  0  0  0  0
  3  4  4  0  0  0  0
  4  5  4  0  0  0  0
  5  6  4  0  0  0  0
  2  7  4  0  0  0  0
  6  7  4  0  0  0  0
  6  8  1  0  0  0  0
  1  9  1  0  0  0  0
  1 10  1  0  0  0  0
  1 11  1  0  0  0  0
  3 12  1  0  0  0  0
  4 13  1  0  0  0  0
  7 14  1  0  0  0  0
  8 15  1  0  0  0  0
  8 16  1  0  0  0  0
  8 17  1  0  0  0  0
M  END
