13
CONF1
C -0.7530688883 -1.1606387189 0.0813851577
N -0.0000051064 -0.0000009453 -0.3808164895
C -0.6287225437 1.2325072378 0.0812422797
C 1.3816885174 -0.0718532556 0.0813740608
H -0.2916872438 -2.0781445622 -0.2988365897
H -1.7789978475 -1.1129717441 -0.2985741060
H -0.7979143060 -1.2302989642 1.1874794968
H -0.6667795137 1.3062986327 1.1873143720
H -1.6538764558 1.2916458392 -0.2992444064
H -0.0742575468 2.0971074416 -0.2986154552
H 1.4647141132 -0.0762509066 1.1874668560
H 1.9454279660 0.7866905370 -0.2985369856
H 1.8534709611 -0.9840676276 -0.2987659153
