 xtb: 6.7.1 (edcfbbe)
          04152519513D

 10  9  0     0  0            999 V2000
   -0.7174   -0.5872   -0.2879 C   0  0  0  0  0  0  0  0  0  0  0  0
    0.6978   -0.6181    0.2909 C   0  0  0  0  0  0  0  0  0  0  0  0
    1.3725    0.5302   -0.1869 O   0  0  0  0  0  0  0  0  0  0  0  0
   -1.4403    0.5220    0.1735 O   0  0  0  0  0  0  0  0  0  0  0  0
   -1.2686   -1.4756    0.0264 H   0  0  0  0  0  0  0  0  0  0  0  0
   -0.6475   -0.5740   -1.3847 H   0  0  0  0  0  0  0  0  0  0  0  0
    1.2071   -1.5358   -0.0312 H   0  0  0  0  0  0  0  0  0  0  0  0
    0.6442   -0.6031    1.3877 H   0  0  0  0  0  0  0  0  0  0  0  0
    2.2676    0.5428    0.1644 H   0  0  0  0  0  0  0  0  0  0  0  0
   -0.8933    1.3008    0.0104 H   0  0  0  0  0  0  0  0  0  0  0  0
  1  2  1  0  0  0  0
  2  3  1  0  0  0  0
  1  4  1  0  0  0  0
  1  5  1  0  0  0  0
  1  6  1  0  0  0  0
  2  7  1  0  0  0  0
  2  8  1  0  0  0  0
  3  9  1  0  0  0  0
  4 10  1  0  0  0  0
M  END
