10
 xtb: 6.7.1 (edcfbbe)
C           -1.63968573635681       -0.50147856140226        0.00006710126566
C           -0.61318581106098        0.64171519551612        0.00008380456020
C            0.75862632625343        0.16070611747897       -0.00061205585340
C            1.88415911440005       -0.26842418743185       -0.00101387327273
H           -2.65601029331234       -0.09786153206461       -0.00031921648414
H           -1.51468875936798       -1.13011191652500        0.88497262509804
H           -1.51418563091248       -1.13048565672006       -0.88451580003946
H           -0.76730309786698        1.28088264148286        0.87811905270109
H           -0.76729729751789        1.28063218386040       -0.87815129888664
H            2.88053616985394       -0.63810087360352        0.00091394624112
