15
 xtb: 6.7.1 (edcfbbe)
C           -2.21897123994610        0.09792226592747       -0.36963114662589
C           -1.00708605247743        0.47562192434762        0.49305572493030
C            0.00540739589264       -0.62740353559561        0.54708572081471
C            1.27909460652400       -0.59660553067809        0.14709998789698
C            2.02696129346693        0.55802675175142       -0.44217084041752
H           -2.97760932906846        0.88655926428894       -0.35362135284882
H           -2.68320948548056       -0.82443832652582       -0.00530717893889
H           -1.91657002175513       -0.06916762600093       -1.40777388936542
H           -0.56190520364717        1.40195665241874        0.11831002004972
H           -1.35355876171598        0.68879949874990        1.51387747849595
H           -0.37031397858350       -1.56898159032084        0.94913695957789
H            1.85924929931372       -1.51228486776055        0.25689593468056
H            2.87451916896642        0.83446896022270        0.19667720772933
H            1.40523282721913        1.44491891788605       -0.57693769239373
H            2.44733053475358        0.28735901959489       -1.41793149861967
