24
CONF1
C -3.9988476352 -0.4792686341 0.0006077377
C -2.5443883968 -0.1006888050 0.0000716537
C -2.1765997072 1.2684851846 -0.0000960919
C -0.8596514832 1.6531911927 -0.0002234361
C 0.1785952205 0.6909189010 -0.0001905840
C 1.5472192994 1.0501090419 0.0000133099
C 2.5443907550 0.1006983789 0.0001560568
C 2.1766029428 -1.2684757709 -0.0000641735
C 0.8596543855 -1.6531828236 -0.0002609803
C -0.1785936455 -0.6909114349 -0.0002289866
C -1.5472184886 -1.0501010792 -0.0000907958
C 3.9988484183 0.4792846541 0.0005257574
H -4.1281289625 -1.5641121430 -0.0000862936
H -4.5090004641 -0.0762128299 0.8826818367
H -4.5100817031 -0.0749056650 -0.8802282592
H -2.9599462665 2.0220576236 -0.0000825443
H -0.5964957752 2.7075397526 -0.0003175334
H 1.8059787678 2.1065259716 0.0001471550
H 2.9599491590 -2.0220487777 -0.0000262927
H 0.5965003269 -2.7075319988 -0.0003725107
H -1.8059790785 -2.1065178326 -0.0000237933
H 4.1281215701 1.5641284500 0.0019401514
H 4.5096033601 0.0744195410 0.8814123039
H 4.5094863268 0.0767395891 -0.8814973802
