8
CONF1
C -0.9212784967 -1.6261862998 0.0007206921
S -0.4867471916 0.1280745390 -0.0000038071
O -0.8618758973 0.7241933078 1.2762633496
O -0.8619497643 0.7231529703 -1.2767498800
Cl 1.6423643157 -0.0553596364 -0.0002477628
H -0.5116045758 -2.0762068747 0.9057299695
H -2.0146855541 -1.6571636029 0.0009886030
H -0.5120126909 -2.0769263463 -0.9041309379
