11
CONF1
C 1.6434724199 1.1966293012 0.0000474852
C 0.2542715661 1.2333741675 -0.0000292755
C -0.4199362543 0.0207085211 -0.0000615824
C 0.2958042014 -1.1743622593 -0.0000051295
N 1.6285983709 -1.2039395715 0.0000725865
C 2.2833885914 -0.0387037441 0.0000944147
Cl -2.1689696965 -0.0183654655 -0.0001776266
H 2.2186565528 2.1166566868 0.0000706486
H -0.2910926572 2.1702959145 -0.0000650111
H -0.2287369924 -2.1273768329 -0.0000178137
H 3.3699247625 -0.0970935008 0.0001463375
