16
CONF1
C -2.5815056126 -0.2637866025 0.0000029301
C -1.8805327737 -1.4850728302 -0.0000022095
C -0.5080480576 -1.4668442390 -0.0000022567
C 0.1950996614 -0.2470002472 0.0000092442
C -0.4961137991 1.0023592605 0.0000025367
C -1.9144800478 0.9353843815 0.0000041183
N 0.0880196315 2.2135181093 0.0000039659
N 1.6202565422 -0.3156182239 0.0000349743
O 2.1767855261 -1.4244435217 -0.0000204249
O 2.2831572059 0.7420525729 -0.0000242369
H -3.6667867241 -0.2650951165 0.0000042160
H -2.4153625653 -2.4274765547 -0.0000019691
H 0.0586877661 -2.3887427014 -0.0000026827
H -2.4632539469 1.8721548098 0.0000070032
H 1.0910829032 2.2977953205 0.0000008841
H -0.4972762505 3.0339822148 0.0000070313
