23
 xtb: 6.7.1 (edcfbbe)
C           -3.01474432560284       -0.25390785558953       -0.00003430639744
C           -1.64824520035323        0.43058221915586        0.00000238016338
C           -0.50580653833717       -0.58516041450534       -0.00054535324988
C            0.93275452999748       -0.02431115018351        0.00000769821460
C            1.18823412222659        0.82410750676434       -1.25262065351559
C            1.18789095010929        0.82246666790763        1.25382126703622
C            1.90223265625843       -1.21491714147056       -0.00064477259733
H           -3.13530892670104       -0.88966874409979       -0.88390220131065
H           -3.13518906016838       -0.88996767704305        0.88363458948994
H           -3.82917367950419        0.47692182447184        0.00014554928134
H           -1.57224427749119        1.08227213571205       -0.87867308318110
H           -1.57198511076345        1.08162581579769        0.87913131236403
H           -0.61785534395122       -1.23668145324294       -0.87954425420418
H           -0.61803992192342       -1.23784840952101        0.87756553884592
H            2.23655167457880        1.13956950489301       -1.29415489679027
H            0.97198716105548        0.25379012470705       -2.16322767788956
H            0.57157052519509        1.72817660535942       -1.26356197510368
H            0.57155754496634        1.72675019891087        1.26554678588835
H            2.23630444689590        1.13748362519099        1.29630182546795
H            0.97093995252707        0.25110234866863        2.16360573783377
H            1.75232888318414       -1.84077141634768       -0.88732355865997
H            2.94273121457350       -0.87233256312138       -0.00051916332318
H            1.75241828748366       -1.84169770237157        0.88539642554792
