22
 xtb: 6.7.1 (edcfbbe)
C           -1.24170573392617        1.13009363647316        0.86556320667945
C           -0.52770439180590        0.29233529489952        0.01794430187180
C           -1.21219676381840       -0.65772352827891       -0.74269207249092
C           -2.60382914001291       -0.77102898894128       -0.65213737871257
C           -3.31781088370637        0.07758293052425        0.20789094165018
C           -2.62142383875445        1.02726073347325        0.96263501150394
Cl          -3.46477266519555        2.09910078639591        2.03717627865998
Cl          -5.03453754058159       -0.04998150897694        0.33074930999153
Cl          -3.44167387756051       -1.95110542969338       -1.59411833408253
Cl          -0.31419008380799       -1.69676378035575       -1.80094947532187
C            0.94559388819110        0.42249705043045       -0.07207818956774
C            1.54244167992228        1.30475673084383       -0.97448525963754
C            2.91900560698566        1.43600588363786       -1.07412566555165
C            3.73211997830912        0.66755211798143       -0.25215593177634
C            3.18271060157375       -0.23003974349784        0.67053530698576
C            1.78818996411510       -0.33886044082438        0.74614489722865
Cl           1.07089859105892       -1.45082005272992        1.86687210296165
Cl           4.20087012040912       -1.18264168944767        1.68768973235377
Cl           5.45225427174904        0.84492663117789       -0.39597340606962
Cl           0.53728082020427        2.26481481725708       -2.02685763502392
H           -0.71689141572492        1.87040539711203        1.45722643099474
H            3.35911629739080        2.12393559744087       -1.78392395644754
