13
CONF1
C 0.6440979354 1.4191575181 -0.0000990105
C 0.5173764857 -0.0748769789 -0.0000865183
C 1.5898989065 -0.8654801970 0.0001962884
C -0.8189622713 -0.6554431406 -0.0003391383
C -1.9619157000 0.0206732272 0.0002780063
H 0.1630401587 1.8392966347 -0.8821693630
H 1.6898722806 1.7148226739 0.0004909703
H 0.1619930348 1.8395415525 0.8812761447
H 1.5035568021 -1.9392149787 0.0004655067
H 2.5909618685 -0.4686916508 0.0005409456
H -0.8444630513 -1.7381809190 -0.0009438835
H -2.9125056500 -0.4853467374 0.0000161661
H -2.0008528284 1.0964404740 0.0009237927
13
CONF2
C 1.0837898250 1.4959372756 -0.0328996760
C 0.4572036684 0.1317064098 -0.0268776331
C 1.1875174028 -0.9729887146 0.0979156511
C -0.9958048442 0.1211808319 -0.1926145899
C -1.8135548921 -0.8684429531 0.1418665628
H 2.1569879989 1.4349893603 0.1268656826
H 0.6466180089 2.1147097453 0.7503069561
H 0.9001458160 1.9886911805 -0.9875540309
H 0.7497076829 -1.9552986787 0.0740746830
H 2.2569228306 -0.9317883609 0.2168303853
H -1.4123703884 1.0315080421 -0.6070557658
H -2.8771486813 -0.7973516783 -0.0100370385
H -1.4573992165 -1.7818734567 0.5868369402
