13
CONF1
C 0.6456951542 1.4218038207 -0.0000075064
C 0.5196131032 -0.0752846932 0.0000774866
C 1.5987309839 -0.8738807029 0.0003157242
C -0.8174418480 -0.6615652816 -0.0001907107
C -1.9684467702 0.0203736095 0.0000042586
H 0.1598758414 1.8542973356 -0.8819893720
H 1.6939281476 1.7267253517 0.0004234870
H 0.1591071818 1.8544663311 0.8814604735
H 1.4974635359 -1.9551286677 0.0001302437
H 2.6055847423 -0.4692628493 0.0003555171
H -0.8512918961 -1.7501298275 -0.0005085091
H -2.9226065807 -0.4950720886 0.0000181443
H -1.9981135710 1.1053551939 0.0004606700
