15
 xtb: 6.7.1 (edcfbbe)
C            1.69977753460602        0.38973421543899        0.63061802735540
C            0.89035085904735        0.35935939278361       -0.66461187902601
C           -0.57102537290068       -0.04650275228697       -0.48973133615187
H           -1.05140404383732       -0.00514737548809       -1.48213961509948
C           -1.34601736081799        0.84965729747112        0.46872301924060
O           -0.56476376635862       -1.40969185881591       -0.02728899966615
H            2.75776143565927        0.56555706828109        0.41581354682593
H            1.61397193685351       -0.56179900432359        1.16138597729002
H            1.36538007407119        1.18716471514435        1.30113710158262
H            1.34481682851756       -0.35117136526378       -1.36465113265459
H            0.91480164644787        1.34246806961686       -1.15063519821225
H           -2.40485529712119        0.56818369233364        0.49304465803801
H           -0.94769704939527        0.76536594900411        1.48363029046083
H           -1.28876378422672        1.89746813312431        0.15511146594512
H           -1.47472454632284       -1.66334752600842        0.16048812526170
