 xtb: 6.7.1 (edcfbbe)
          04152520263D

 20 19  0     0  0            999 V2000
   -1.4835   -0.2887    1.2309 C   0  0  0  0  0  0  0  0  0  0  0  0
   -0.6168   -0.4618   -0.0173 C   0  0  0  0  0  0  0  0  0  0  0  0
   -1.4776   -0.2010   -1.2543 C   0  0  0  0  0  0  0  0  0  0  0  0
    0.6182    0.4588    0.0169 C   0  0  0  0  0  0  0  0  0  0  0  0
    1.4700    0.2127    1.2631 C   0  0  0  0  0  0  0  0  0  0  0  0
    1.4935    0.2705   -1.2230 C   0  0  0  0  0  0  0  0  0  0  0  0
   -1.7614    0.7558    1.3575 H   0  0  0  0  0  0  0  0  0  0  0  0
   -2.3955   -0.8745    1.1363 H   0  0  0  0  0  0  0  0  0  0  0  0
   -0.9662   -0.6223    2.1257 H   0  0  0  0  0  0  0  0  0  0  0  0
   -0.2671   -1.5004   -0.0529 H   0  0  0  0  0  0  0  0  0  0  0  0
   -0.9534   -0.4631   -2.1687 H   0  0  0  0  0  0  0  0  0  0  0  0
   -2.3865   -0.7974   -1.2096 H   0  0  0  0  0  0  0  0  0  0  0  0
   -1.7612    0.8485   -1.3038 H   0  0  0  0  0  0  0  0  0  0  0  0
    0.2685    1.4978    0.0380 H   0  0  0  0  0  0  0  0  0  0  0  0
    1.7470   -0.8375    1.3314 H   0  0  0  0  0  0  0  0  0  0  0  0
    2.3827    0.8029    1.2138 H   0  0  0  0  0  0  0  0  0  0  0  0
    0.9420    0.4933    2.1697 H   0  0  0  0  0  0  0  0  0  0  0  0
    1.7775   -0.7745   -1.3308 H   0  0  0  0  0  0  0  0  0  0  0  0
    2.4020    0.8624   -1.1324 H   0  0  0  0  0  0  0  0  0  0  0  0
    0.9804    0.5865   -2.1265 H   0  0  0  0  0  0  0  0  0  0  0  0
  1  2  1  0  0  0  0
  2  3  1  0  0  0  0
  2  4  1  0  0  0  0
  4  5  1  0  0  0  0
  4  6  1  0  0  0  0
  1  7  1  0  0  0  0
  1  8  1  0  0  0  0
  1  9  1  0  0  0  0
  2 10  1  0  0  0  0
  3 11  1  0  0  0  0
  3 12  1  0  0  0  0
  3 13  1  0  0  0  0
  4 14  1  0  0  0  0
  5 15  1  0  0  0  0
  5 16  1  0  0  0  0
  5 17  1  0  0  0  0
  6 18  1  0  0  0  0
  6 19  1  0  0  0  0
  6 20  1  0  0  0  0
M  END
