 xtb: 6.7.1 (edcfbbe)
          04152519223D

 16 16  0     0  0            999 V2000
    0.7261   -1.1978    0.2460 C   0  0  0  0  0  0  0  0  0  0  0  0
   -0.7253   -1.1896   -0.2495 C   0  0  0  0  0  0  0  0  0  0  0  0
   -1.4452    0.0000    0.1685 N   0  0  0  0  0  0  0  0  0  0  0  0
   -0.7253    1.1896   -0.2495 C   0  0  0  0  0  0  0  0  0  0  0  0
    0.7261    1.1978    0.2460 C   0  0  0  0  0  0  0  0  0  0  0  0
    1.3836   -0.0000   -0.2464 N   0  0  0  0  0  0  0  0  0  0  0  0
    1.2526   -2.0717   -0.1431 H   0  0  0  0  0  0  0  0  0  0  0  0
    0.7288   -1.2522    1.3524 H   0  0  0  0  0  0  0  0  0  0  0  0
   -0.7255   -1.2038   -1.3423 H   0  0  0  0  0  0  0  0  0  0  0  0
   -1.2566   -2.0705    0.1169 H   0  0  0  0  0  0  0  0  0  0  0  0
   -1.5297    0.0000    1.1830 H   0  0  0  0  0  0  0  0  0  0  0  0
   -0.7254    1.2038   -1.3422 H   0  0  0  0  0  0  0  0  0  0  0  0
   -1.2565    2.0705    0.1170 H   0  0  0  0  0  0  0  0  0  0  0  0
    1.2526    2.0716   -0.1431 H   0  0  0  0  0  0  0  0  0  0  0  0
    0.7288    1.2521    1.3524 H   0  0  0  0  0  0  0  0  0  0  0  0
    2.3647   -0.0000    0.0149 H   0  0  0  0  0  0  0  0  0  0  0  0
  1  2  1  0  0  0  0
  2  3  1  0  0  0  0
  3  4  1  0  0  0  0
  4  5  1  0  0  0  0
  1  6  1  0  0  0  0
  5  6  1  0  0  0  0
  1  7  1  0  0  0  0
  1  8  1  0  0  0  0
  2  9  1  0  0  0  0
  2 10  1  0  0  0  0
  3 11  1  0  0  0  0
  4 12  1  0  0  0  0
  4 13  1  0  0  0  0
  5 14  1  0  0  0  0
  5 15  1  0  0  0  0
  6 16  1  0  0  0  0
M  END
