15
 xtb: 6.7.1 (edcfbbe)
C           -1.74806798061145       -0.79525917738008       -0.02795833627288
C           -0.48285883575807        0.00393771299719       -0.34391333891267
C           -0.61991164239655        1.45914032506888        0.10342494078347
C            0.71953332448208       -0.66252367098332        0.31118430625234
O            1.90356930601084        0.04021169661217       -0.07975753458273
H           -1.93041025939528       -0.82150208765803        1.05299914018797
H           -1.67489086974262       -1.82837613814154       -0.38374679605727
H           -2.62281336356746       -0.33778038528368       -0.49946310883675
H           -0.31208954639254       -0.01599656297265       -1.42916507279146
H           -0.80617934131356        1.51070929226032        1.18330548246913
H           -1.45869761220292        1.94496388700230       -0.40531713489158
H            0.29014704610294        2.02370245846023       -0.11182637626546
H            0.59397239132579       -0.63873503083321        1.40755168709078
H            0.77274351070235       -1.71748122468198       -0.00310498263461
H            2.65426771538023       -0.36441009173446        0.36550517998254
