8
CONF1
C -2.2143846752 -0.4172150311 0.0000003888
C -1.1808744003 0.6874866530 -0.0000001128
Br 0.6356681592 -0.0475813552 -0.0000000269
H -3.2113248791 0.0205554608 -0.0001393069
H -2.1096446026 -1.0444493519 -0.8829877176
H -2.1098124389 -1.0442771667 0.8831291557
H -1.2513547466 1.3097648999 0.8910517441
H -1.2513605412 1.3097586294 -0.8910550307
8
CONF2
C -2.2454511904 -0.4206107333 -0.0000022142
C -1.1840213295 0.6742756784 -0.0000027151
Br 0.6421001614 -0.0445533834 -0.0000026360
H -2.8796925429 -0.3393152419 -0.8795810235
H -1.7987136670 -1.4117724227 -0.0039495253
H -2.8749168764 -0.3441528147 0.8834498523
H -1.2409838890 1.3019639051 0.8872564657
H -1.2413878913 1.3024777775 -0.8869080530
