8
CONF1
C -2.2158190735 -0.4204402777 0.0000018641
C -1.1894994498 0.6873612225 -0.0000085702
Br 0.6590905069 -0.0378004213 0.0000492571
H -3.2196216864 0.0225636766 -0.0000842916
H -2.1186376848 -1.0510095921 -0.8868069229
H -2.1187391112 -1.0508997748 0.8868997671
H -1.2449471581 1.3121573388 0.8911978893
H -1.2449144923 1.3121104714 -0.8912499583
8
CONF2
C -2.2511054314 -0.4224745329 0.0000864191
C -1.1906212556 0.6773904567 -0.0002499410
Br 0.6626286164 -0.0391335101 0.0022957838
H -2.8909901445 -0.3429846145 -0.8824610746
H -1.8041627321 -1.4175635041 -0.0065464708
H -2.8828757965 -0.3509948188 0.8890944292
H -1.2337601130 1.3080098090 0.8860268841
H -1.2321804652 1.3060634358 -0.8879858709
