27
 xtb: 6.7.1 (edcfbbe)
C            3.26511862402211       -0.09097505601791        1.00183079526634
C            1.93489377657112       -0.09767647606964        0.31980085030123
C            1.36729739003036        1.02517982074185       -0.16086390353787
C            0.03922590320231        1.05586314343068       -0.78795230439569
O           -0.39160392356019        2.07471653866752       -1.31123098712368
C           -0.78570368263355       -0.22175442685576       -0.69582866820463
H           -1.51203913940386       -0.19494772738545       -1.51765684762897
C            0.15458119554862       -1.42099123871963       -0.87005651953703
C            1.25333052047925       -1.43042241253484        0.19070392381349
C           -1.58228750360746       -0.23004272468613        0.63842031461246
C           -2.58739376969015        0.92402704296271        0.68207865073910
C           -2.31019592808981       -1.56039507001680        0.85028922830688
H            3.66101496419778        0.92009517199614        1.11652200852374
H            3.98895470653446       -0.69090538088605        0.43637837040561
H            3.18719283806156       -0.55381621569652        1.99367186056224
H            1.88005809340142        1.98191578860343       -0.09829311243362
H           -0.40307756437237       -2.36220745362407       -0.85876706653845
H            0.62637008859605       -1.34753652144145       -1.85817124668950
H            0.84322806643810       -1.70634367567380        1.17475569377383
H            2.00401236738662       -2.19788874250227       -0.03733501163000
H           -0.86823527552758       -0.09090452168575        1.46324283585334
H           -2.10688800974084        1.89557729796446        0.54836449809005
H           -3.11747930654319        0.92876975470708        1.63983103447995
H           -3.33130263796250        0.81268543970158       -0.11525071074581
H           -2.96517406006304       -1.78131393595177       -0.00104779522207
H           -2.93672308291694       -1.50775025012989        1.74632424188878
H           -1.62396375003507       -2.40225535040699        0.97788804892727
