12
CONF1
C -0.9336945190 1.0511595530 0.0000464633
C 0.4331337100 1.3026856523 0.0000657446
C 1.3773617274 0.2829692078 0.0000684410
C 0.9116939769 -1.0263936420 0.0000847406
C -0.4435054146 -1.3341307348 0.0000468479
C -1.3447641966 -0.2762627668 0.0000117327
Cl -3.0566701053 -0.6281160392 0.0000299755
Cl 2.0719723205 -2.3334181875 0.0000623598
Cl 0.9843374862 2.9612241605 0.0000652896
H -1.6518972462 1.8600660850 0.0000422480
H 2.4369764308 0.5006469451 0.0000737055
H -0.7847904622 -2.3606065373 0.0000399706
