 xtb: 6.7.1 (edcfbbe)
          04152519323D

 22 24  0     0  0            999 V2000
    1.1596   -0.6975    0.0009 C   0  0  0  0  0  0  0  0  0  0  0  0
    1.1596    0.6975    0.0009 C   0  0  0  0  0  0  0  0  0  0  0  0
    2.3647    1.3927    0.0004 C   0  0  0  0  0  0  0  0  0  0  0  0
    3.5758    0.6960   -0.0001 C   0  0  0  0  0  0  0  0  0  0  0  0
    3.5758   -0.6961   -0.0002 C   0  0  0  0  0  0  0  0  0  0  0  0
    2.3647   -1.3927    0.0003 C   0  0  0  0  0  0  0  0  0  0  0  0
    2.3334   -3.1033    0.0003 Cl  0  0  0  0  0  0  0  0  0  0  0  0
    5.0515   -1.5580   -0.0009 Cl  0  0  0  0  0  0  0  0  0  0  0  0
    5.0515    1.5580   -0.0008 Cl  0  0  0  0  0  0  0  0  0  0  0  0
    2.3334    3.1033    0.0005 Cl  0  0  0  0  0  0  0  0  0  0  0  0
    0.0000    1.4228    0.0014 O   0  0  0  0  0  0  0  0  0  0  0  0
   -1.1596    0.6975    0.0009 C   0  0  0  0  0  0  0  0  0  0  0  0
   -1.1596   -0.6975    0.0009 C   0  0  0  0  0  0  0  0  0  0  0  0
   -2.3647   -1.3927    0.0004 C   0  0  0  0  0  0  0  0  0  0  0  0
   -3.5758   -0.6961   -0.0001 C   0  0  0  0  0  0  0  0  0  0  0  0
   -3.5758    0.6961   -0.0001 C   0  0  0  0  0  0  0  0  0  0  0  0
   -2.3647    1.3927    0.0004 C   0  0  0  0  0  0  0  0  0  0  0  0
   -2.3334    3.1033    0.0003 Cl  0  0  0  0  0  0  0  0  0  0  0  0
   -5.0515    1.5580   -0.0008 Cl  0  0  0  0  0  0  0  0  0  0  0  0
   -5.0515   -1.5580   -0.0007 Cl  0  0  0  0  0  0  0  0  0  0  0  0
   -2.3334   -3.1033    0.0005 Cl  0  0  0  0  0  0  0  0  0  0  0  0
   -0.0000   -1.4228    0.0013 O   0  0  0  0  0  0  0  0  0  0  0  0
  1  2  4  0  0  0  0
  2  3  4  0  0  0  0
  3  4  4  0  0  0  0
  4  5  4  0  0  0  0
  1  6  4  0  0  0  0
  5  6  4  0  0  0  0
  6  7  1  0  0  0  0
  5  8  1  0  0  0  0
  4  9  1  0  0  0  0
  3 10  1  0  0  0  0
  2 11  1  0  0  0  0
 11 12  1  0  0  0  0
 12 13  4  0  0  0  0
 13 14  4  0  0  0  0
 14 15  4  0  0  0  0
 15 16  4  0  0  0  0
 12 17  4  0  0  0  0
 16 17  4  0  0  0  0
 17 18  1  0  0  0  0
 16 19  1  0  0  0  0
 15 20  1  0  0  0  0
 14 21  1  0  0  0  0
  1 22  1  0  0  0  0
 13 22  1  0  0  0  0
M  END
