 xtb: 6.7.1 (edcfbbe)
          04152519473D

 19 19  0     0  0            999 V2000
   -2.4461   -1.1095    0.4973 C   0  0  0  0  0  0  0  0  0  0  0  0
   -1.7167    0.0927   -0.0295 C   0  0  0  0  0  0  0  0  0  0  0  0
   -2.3710    1.1508   -0.4966 C   0  0  0  0  0  0  0  0  0  0  0  0
   -0.2448    0.0385   -0.0175 C   0  0  0  0  0  0  0  0  0  0  0  0
    0.5048    1.1834    0.2496 C   0  0  0  0  0  0  0  0  0  0  0  0
    1.8860    1.1404    0.2630 C   0  0  0  0  0  0  0  0  0  0  0  0
    2.5488   -0.0486    0.0089 C   0  0  0  0  0  0  0  0  0  0  0  0
    1.8172   -1.1943   -0.2532 C   0  0  0  0  0  0  0  0  0  0  0  0
    0.4352   -1.1534   -0.2608 C   0  0  0  0  0  0  0  0  0  0  0  0
   -1.9837   -1.4659    1.4161 H   0  0  0  0  0  0  0  0  0  0  0  0
   -3.4876   -0.8674    0.6935 H   0  0  0  0  0  0  0  0  0  0  0  0
   -2.4195   -1.9202   -0.2307 H   0  0  0  0  0  0  0  0  0  0  0  0
   -1.8617    2.0028   -0.9127 H   0  0  0  0  0  0  0  0  0  0  0  0
   -3.4473    1.1920   -0.5005 H   0  0  0  0  0  0  0  0  0  0  0  0
   -0.0042    2.1105    0.4680 H   0  0  0  0  0  0  0  0  0  0  0  0
    2.4489    2.0376    0.4768 H   0  0  0  0  0  0  0  0  0  0  0  0
    3.6283   -0.0829    0.0189 H   0  0  0  0  0  0  0  0  0  0  0  0
    2.3264   -2.1266   -0.4516 H   0  0  0  0  0  0  0  0  0  0  0  0
   -0.1181   -2.0551   -0.4761 H   0  0  0  0  0  0  0  0  0  0  0  0
  1  2  1  0  0  0  0
  2  3  2  0  0  0  0
  2  4  1  0  0  0  0
  4  5  4  0  0  0  0
  5  6  4  0  0  0  0
  6  7  4  0  0  0  0
  7  8  4  0  0  0  0
  4  9  4  0  0  0  0
  8  9  4  0  0  0  0
  1 10  1  0  0  0  0
  1 11  1  0  0  0  0
  1 12  1  0  0  0  0
  3 13  1  0  0  0  0
  3 14  1  0  0  0  0
  5 15  1  0  0  0  0
  6 16  1  0  0  0  0
  7 17  1  0  0  0  0
  8 18  1  0  0  0  0
  9 19  1  0  0  0  0
M  END
