 xtb: 6.7.1 (edcfbbe)
          04162510273D

 15 14  0     0  0            999 V2000
   -2.1785    0.3226    0.3064 C   0  0  0  0  0  0  0  0  0  0  0  0
   -1.0042    0.1398   -0.6557 C   0  0  0  0  0  0  0  0  0  0  0  0
    0.0038   -0.8107   -0.0882 C   0  0  0  0  0  0  0  0  0  0  0  0
    1.2586   -0.5574    0.2499 C   0  0  0  0  0  0  0  0  0  0  0  0
    1.9938    0.7380    0.1353 C   0  0  0  0  0  0  0  0  0  0  0  0
   -2.6530   -0.6339    0.5152 H   0  0  0  0  0  0  0  0  0  0  0  0
   -2.9225    0.9910   -0.1215 H   0  0  0  0  0  0  0  0  0  0  0  0
   -1.8322    0.7455    1.2469 H   0  0  0  0  0  0  0  0  0  0  0  0
   -1.3789   -0.2685   -1.5992 H   0  0  0  0  0  0  0  0  0  0  0  0
   -0.5553    1.1098   -0.8677 H   0  0  0  0  0  0  0  0  0  0  0  0
   -0.3801   -1.8118    0.0677 H   0  0  0  0  0  0  0  0  0  0  0  0
    1.8557   -1.3646    0.6576 H   0  0  0  0  0  0  0  0  0  0  0  0
    1.3635    1.5402   -0.2354 H   0  0  0  0  0  0  0  0  0  0  0  0
    2.8432    0.6231   -0.5386 H   0  0  0  0  0  0  0  0  0  0  0  0
    2.3855    1.0263    1.1107 H   0  0  0  0  0  0  0  0  0  0  0  0
  1  2  1  0  0  0  0
  2  3  1  0  0  0  0
  3  4  2  0  0  0  0
  4  5  1  0  0  0  0
  1  6  1  0  0  0  0
  1  7  1  0  0  0  0
  1  8  1  0  0  0  0
  2  9  1  0  0  0  0
  2 10  1  0  0  0  0
  3 11  1  0  0  0  0
  4 12  1  0  0  0  0
  5 13  1  0  0  0  0
  5 14  1  0  0  0  0
  5 15  1  0  0  0  0
M  END
