10
 xtb: 6.7.1 (edcfbbe)
C            1.81850609325156       -0.26460202013531        0.16481804771166
C            0.57377522115811        0.57712616620124       -0.13434605657397
C           -0.65886510240593       -0.27952179932590       -0.25151981670436
O           -1.71044715796729       -0.06092707033650        0.30016575775473
H            1.96876735222134       -1.03491876686019       -0.59850429625598
H            1.73046755449674       -0.76233942400228        1.13480700009957
H            2.71222031483408        0.36346557894747        0.18669606982127
H            0.39965320031943        1.34521985920802        0.62425191265688
H            0.70072117668603        1.08389559234360       -1.10260261940926
H           -0.53933506185829       -1.17659469862099       -0.90852612125757
