 xtb: 6.7.1 (edcfbbe)
          04152519353D

 27 27  0     0  0            999 V2000
   -2.8450   -0.8087    0.2745 C   0  0  0  0  0  0  0  0  0  0  0  0
   -1.7137   -0.2395   -0.5907 C   0  0  0  0  0  0  0  0  0  0  0  0
   -2.1611    0.1119   -1.5272 H   0  0  0  0  0  0  0  0  0  0  0  0
   -0.6398   -1.2827   -0.9086 C   0  0  0  0  0  0  0  0  0  0  0  0
    0.2141   -1.6236    0.3053 C   0  0  0  0  0  0  0  0  0  0  0  0
    0.9232   -0.3731    0.8444 C   0  0  0  0  0  0  0  0  0  0  0  0
    1.4415   -0.6512    1.7711 H   0  0  0  0  0  0  0  0  0  0  0  0
   -0.1244    0.6886    1.2005 C   0  0  0  0  0  0  0  0  0  0  0  0
   -1.1349    0.9720    0.1152 C   0  0  0  0  0  0  0  0  0  0  0  0
   -1.5185    2.0905   -0.1293 O   0  0  0  0  0  0  0  0  0  0  0  0
    1.9778    0.1146   -0.1235 C   0  0  0  0  0  0  0  0  0  0  0  0
    1.8033    1.1223   -0.9627 C   0  0  0  0  0  0  0  0  0  0  0  0
    3.2727   -0.6426   -0.0661 C   0  0  0  0  0  0  0  0  0  0  0  0
   -3.5887   -0.0392    0.4694 H   0  0  0  0  0  0  0  0  0  0  0  0
   -3.3287   -1.6322   -0.2466 H   0  0  0  0  0  0  0  0  0  0  0  0
   -2.4728   -1.1749    1.2275 H   0  0  0  0  0  0  0  0  0  0  0  0
   -1.1217   -2.1864   -1.2889 H   0  0  0  0  0  0  0  0  0  0  0  0
    0.0090   -0.8924   -1.6959 H   0  0  0  0  0  0  0  0  0  0  0  0
   -0.4073   -2.0509    1.0943 H   0  0  0  0  0  0  0  0  0  0  0  0
    0.9514   -2.3785    0.0272 H   0  0  0  0  0  0  0  0  0  0  0  0
   -0.6971    0.3340    2.0630 H   0  0  0  0  0  0  0  0  0  0  0  0
    0.3578    1.6258    1.4851 H   0  0  0  0  0  0  0  0  0  0  0  0
    2.5857    1.4281   -1.6375 H   0  0  0  0  0  0  0  0  0  0  0  0
    0.8933    1.6917   -1.0165 H   0  0  0  0  0  0  0  0  0  0  0  0
    3.9632   -0.2890   -0.8267 H   0  0  0  0  0  0  0  0  0  0  0  0
    3.7387   -0.5174    0.9112 H   0  0  0  0  0  0  0  0  0  0  0  0
    3.1063   -1.7082   -0.2177 H   0  0  0  0  0  0  0  0  0  0  0  0
  1  2  1  0  0  0  0
  2  3  1  0  0  0  0
  2  4  1  0  0  0  0
  4  5  1  0  0  0  0
  5  6  1  0  0  0  0
  6  7  1  0  0  0  0
  6  8  1  0  0  0  0
  2  9  1  0  0  0  0
  8  9  1  0  0  0  0
  9 10  2  0  0  0  0
  6 11  1  0  0  0  0
 11 12  2  0  0  0  0
 11 13  1  0  0  0  0
  1 14  1  0  0  0  0
  1 15  1  0  0  0  0
  1 16  1  0  0  0  0
  4 17  1  0  0  0  0
  4 18  1  0  0  0  0
  5 19  1  0  0  0  0
  5 20  1  0  0  0  0
  8 21  1  0  0  0  0
  8 22  1  0  0  0  0
 12 23  1  0  0  0  0
 12 24  1  0  0  0  0
 13 25  1  0  0  0  0
 13 26  1  0  0  0  0
 13 27  1  0  0  0  0
M  END
