23
 xtb: 6.7.1 (edcfbbe)
C           -2.74720962348622       -0.37293490379383       -0.60997596089701
C           -1.51950565510232        0.16363801574672        0.10039139015573
O           -1.51267777124703        0.31210437604716        1.30620870436495
C           -0.34013209540910        0.53232155523125       -0.78864229346318
C            0.42387745427011       -0.74671327021768       -1.21261026414998
C            1.25942206797581       -1.32482251427268       -0.06983616853843
C            2.24801138479219       -0.28326876472548        0.45634325161599
C            1.50875664836082        0.96226883266817        0.94560815339186
C            0.61377301685873        1.55231409173237       -0.14981361724670
H           -3.36791543946454       -0.93882190813385        0.08589260965270
H           -3.32605336673706        0.48816324431582       -0.96748518955367
H           -2.49745587292426       -0.97742671543502       -1.48591251461516
H           -0.77496679230444        0.96726189024218       -1.70075967967496
H           -0.27147961512385       -1.49899967134625       -1.60233834517460
H            1.09119773705205       -0.47666640060842       -2.04187885795705
H            0.60139562401810       -1.64649657426509        0.74866531702085
H            1.78981942356900       -2.21730323127790       -0.42176521638855
H            2.85252646748368       -0.70740543490279        1.26596878223069
H            2.94325437951584       -0.00907694665635       -0.35078697884868
H            0.89170080052817        0.70201731052704        1.81092311501043
H            2.22558872425544        1.72415848474511        1.27343870521309
H            0.03410779168452        2.38981437987823        0.25364220783895
H            1.24917323002248        1.95625471446933       -0.95027186267067
