 xtb: 6.7.1 (edcfbbe)
          04162511253D

 24 24  0     0  0            999 V2000
   -2.2005   -0.9026   -0.1476 C   0  0  0  0  0  0  0  0  0  0  0  0
   -1.1314   -0.3254    0.8041 C   0  0  0  0  0  0  0  0  0  0  0  0
   -1.5912   -0.3125    1.8014 H   0  0  0  0  0  0  0  0  0  0  0  0
   -0.7351    1.1362    0.4953 C   0  0  0  0  0  0  0  0  0  0  0  0
   -1.6011    1.6519    0.0630 H   0  0  0  0  0  0  0  0  0  0  0  0
    0.4451    1.2441   -0.4880 C   0  0  0  0  0  0  0  0  0  0  0  0
    0.7864    2.2910   -0.4783 H   0  0  0  0  0  0  0  0  0  0  0  0
    1.6024    0.3422    0.0017 C   0  0  0  0  0  0  0  0  0  0  0  0
    2.4033    0.3490   -0.7536 H   0  0  0  0  0  0  0  0  0  0  0  0
    1.0881   -1.1000    0.1218 C   0  0  0  0  0  0  0  0  0  0  0  0
    1.8376   -1.7222    0.6278 H   0  0  0  0  0  0  0  0  0  0  0  0
   -0.0246   -1.2087    0.9621 O   0  0  0  0  0  0  0  0  0  0  0  0
    0.8734   -1.6447   -1.1526 O   0  0  0  0  0  0  0  0  0  0  0  0
    2.0946    0.7429    1.2582 O   0  0  0  0  0  0  0  0  0  0  0  0
    0.1095    0.9242   -1.8170 O   0  0  0  0  0  0  0  0  0  0  0  0
   -0.4402    1.8248    1.6825 O   0  0  0  0  0  0  0  0  0  0  0  0
   -1.7926   -0.9962   -1.4905 O   0  0  0  0  0  0  0  0  0  0  0  0
   -3.0757   -0.2490   -0.1335 H   0  0  0  0  0  0  0  0  0  0  0  0
   -2.4880   -1.8902    0.2302 H   0  0  0  0  0  0  0  0  0  0  0  0
    0.8055   -0.9179   -1.7979 H   0  0  0  0  0  0  0  0  0  0  0  0
    2.5045    1.6120    1.1728 H   0  0  0  0  0  0  0  0  0  0  0  0
   -0.7415    0.4351   -1.8364 H   0  0  0  0  0  0  0  0  0  0  0  0
    0.3190    1.3840    2.0964 H   0  0  0  0  0  0  0  0  0  0  0  0
   -1.0769   -1.6566   -1.5311 H   0  0  0  0  0  0  0  0  0  0  0  0
  1  2  1  0  0  0  0
  2  3  1  0  0  0  0
  2  4  1  0  0  0  0
  4  5  1  0  0  0  0
  4  6  1  0  0  0  0
  6  7  1  0  0  0  0
  6  8  1  0  0  0  0
  8  9  1  0  0  0  0
  8 10  1  0  0  0  0
 10 11  1  0  0  0  0
  2 12  1  0  0  0  0
 10 12  1  0  0  0  0
 10 13  1  0  0  0  0
  8 14  1  0  0  0  0
  6 15  1  0  0  0  0
  4 16  1  0  0  0  0
  1 17  1  0  0  0  0
  1 18  1  0  0  0  0
  1 19  1  0  0  0  0
 13 20  1  0  0  0  0
 14 21  1  0  0  0  0
 15 22  1  0  0  0  0
 16 23  1  0  0  0  0
 17 24  1  0  0  0  0
M  END
