12
CONF3
C -1.6127047647 -0.1247633723 0.4755630561
C -0.6630223778 0.5073396223 -0.5390273016
C 0.6835939272 -0.1951761616 -0.6204638918
O 1.4432724408 -0.1033549041 0.6031284171
H -1.7891448658 -1.1808989959 0.2414171352
H -1.2147683584 -0.0661863687 1.4948871971
H -2.5809178936 0.3853759930 0.4768074978
H -0.5004837177 1.5656603198 -0.2995899445
H -1.1132130467 0.4720675786 -1.5393486060
H 0.5438297433 -1.2516479683 -0.8935352950
H 1.3084039807 0.2718443343 -1.3880193139
H 0.9664308704 -0.6005455595 1.2793748309
