9
CONF1
C 1.3120478192 -0.7105706860 0.0000905842
C 1.3119833693 0.7106887701 -0.0000367505
C 0.0512558964 1.2410267148 -0.0000523073
S -1.1540895360 -0.0000498984 -0.0000252504
C 0.0513697309 -1.2410282780 0.0001039484
H 2.2106556182 -1.3153859690 0.0001335428
H 2.2105377911 1.3155821807 -0.0000676956
H -0.2397880105 2.2822331131 -0.0001205036
H -0.2395823809 -2.2822634449 0.0001617470
