 xtb: 6.7.1 (edcfbbe)
          04162510273D

 15 14  0     0  0            999 V2000
   -2.1959    0.2222   -0.3131 C   0  0  0  0  0  0  0  0  0  0  0  0
   -0.9908    0.3224    0.6225 C   0  0  0  0  0  0  0  0  0  0  0  0
    0.0072   -0.7516    0.3193 C   0  0  0  0  0  0  0  0  0  0  0  0
    1.2557   -0.6067   -0.0971 C   0  0  0  0  0  0  0  0  0  0  0  0
    1.9929    0.6668   -0.3549 C   0  0  0  0  0  0  0  0  0  0  0  0
   -1.8826    0.3542   -1.3464 H   0  0  0  0  0  0  0  0  0  0  0  0
   -2.9306    0.9877   -0.0730 H   0  0  0  0  0  0  0  0  0  0  0  0
   -2.6704   -0.7525   -0.2212 H   0  0  0  0  0  0  0  0  0  0  0  0
   -0.5440    1.3121    0.5327 H   0  0  0  0  0  0  0  0  0  0  0  0
   -1.3324    0.2023    1.6551 H   0  0  0  0  0  0  0  0  0  0  0  0
   -0.3788   -1.7553    0.4518 H   0  0  0  0  0  0  0  0  0  0  0  0
    1.8454   -1.4977   -0.2781 H   0  0  0  0  0  0  0  0  0  0  0  0
    1.3710    1.5432   -0.2028 H   0  0  0  0  0  0  0  0  0  0  0  0
    2.3630    0.6768   -1.3801 H   0  0  0  0  0  0  0  0  0  0  0  0
    2.8569    0.7343    0.3065 H   0  0  0  0  0  0  0  0  0  0  0  0
  1  2  1  0  0  0  0
  2  3  1  0  0  0  0
  3  4  2  0  0  0  0
  4  5  1  0  0  0  0
  1  6  1  0  0  0  0
  1  7  1  0  0  0  0
  1  8  1  0  0  0  0
  2  9  1  0  0  0  0
  2 10  1  0  0  0  0
  3 11  1  0  0  0  0
  4 12  1  0  0  0  0
  5 13  1  0  0  0  0
  5 14  1  0  0  0  0
  5 15  1  0  0  0  0
M  END
