12
CONF1
C -1.1654595359 -0.7617983849 -0.0000053461
C 0.0770184195 -1.3901218287 -0.0000012459
C 1.2423784864 -0.6283670576 -0.0000216074
C 1.1654683203 0.7618081068 -0.0000089997
C -0.0770259559 1.3901307793 -0.0000027010
C -1.2423761918 0.6283640770 -0.0000142140
H -2.0740275223 -1.3556526718 -0.0000017098
H 0.1370761486 -2.4738938965 -0.0000097993
H 2.2109468735 -1.1183399069 -0.0000145771
H 2.0740578243 1.3556808284 -0.0000154501
H -0.1371362271 2.4739135333 -0.0000098251
H -2.2109564073 1.1182800956 0.0000006758
