 xtb: 6.7.1 (edcfbbe)
          04162511253D

 24 24  0     0  0            999 V2000
   -2.5103   -0.9794    0.4070 C   0  0  0  0  0  0  0  0  0  0  0  0
   -1.0821   -0.4677    0.6421 C   0  0  0  0  0  0  0  0  0  0  0  0
   -0.9088   -0.3518    1.7242 H   0  0  0  0  0  0  0  0  0  0  0  0
   -0.8241    0.8789   -0.0556 C   0  0  0  0  0  0  0  0  0  0  0  0
   -0.9663    0.7474   -1.1382 H   0  0  0  0  0  0  0  0  0  0  0  0
    0.6278    1.2828    0.2073 C   0  0  0  0  0  0  0  0  0  0  0  0
    0.7537    1.4303    1.2932 H   0  0  0  0  0  0  0  0  0  0  0  0
    1.5890    0.1812   -0.2561 C   0  0  0  0  0  0  0  0  0  0  0  0
    1.5627    0.1230   -1.3544 H   0  0  0  0  0  0  0  0  0  0  0  0
    1.1652   -1.1842    0.3026 C   0  0  0  0  0  0  0  0  0  0  0  0
    1.3874   -1.1930    1.3898 H   0  0  0  0  0  0  0  0  0  0  0  0
   -0.2116   -1.4450    0.1106 O   0  0  0  0  0  0  0  0  0  0  0  0
    1.8619   -2.1631   -0.3706 O   0  0  0  0  0  0  0  0  0  0  0  0
    2.8862    0.4432    0.1997 O   0  0  0  0  0  0  0  0  0  0  0  0
    0.9708    2.4628   -0.4769 O   0  0  0  0  0  0  0  0  0  0  0  0
   -1.6456    1.9150    0.4299 O   0  0  0  0  0  0  0  0  0  0  0  0
   -2.8423   -1.0043   -0.9534 O   0  0  0  0  0  0  0  0  0  0  0  0
   -3.2297   -0.3193    0.8967 H   0  0  0  0  0  0  0  0  0  0  0  0
   -2.5925   -1.9804    0.8507 H   0  0  0  0  0  0  0  0  0  0  0  0
    1.5552   -3.0276   -0.0713 H   0  0  0  0  0  0  0  0  0  0  0  0
    3.1238    1.3246   -0.1155 H   0  0  0  0  0  0  0  0  0  0  0  0
    0.2769    3.1086   -0.2944 H   0  0  0  0  0  0  0  0  0  0  0  0
   -2.5495    1.7497    0.1400 H   0  0  0  0  0  0  0  0  0  0  0  0
   -2.1857   -1.5521   -1.4013 H   0  0  0  0  0  0  0  0  0  0  0  0
  1  2  1  0  0  0  0
  2  3  1  0  0  0  0
  2  4  1  0  0  0  0
  4  5  1  0  0  0  0
  4  6  1  0  0  0  0
  6  7  1  0  0  0  0
  6  8  1  0  0  0  0
  8  9  1  0  0  0  0
  8 10  1  0  0  0  0
 10 11  1  0  0  0  0
  2 12  1  0  0  0  0
 10 12  1  0  0  0  0
 10 13  1  0  0  0  0
  8 14  1  0  0  0  0
  6 15  1  0  0  0  0
  4 16  1  0  0  0  0
  1 17  1  0  0  0  0
  1 18  1  0  0  0  0
  1 19  1  0  0  0  0
 13 20  1  0  0  0  0
 14 21  1  0  0  0  0
 15 22  1  0  0  0  0
 16 23  1  0  0  0  0
 17 24  1  0  0  0  0
M  END
