15
 xtb: 6.7.1 (edcfbbe)
C            2.08539569361231        0.05502235046037       -0.08007769902633
C            0.75992991048490        0.72351414417205        0.27861835619353
C           -0.45715200831614        0.03331166776572       -0.33896509910424
H           -0.35000215381975        0.04708825323702       -1.43835079395719
C           -1.75585515806386        0.71992276126017        0.04279868549846
O           -0.57788711086534       -1.32692848241427        0.10845869250545
H            2.93217550092574        0.61321832750806        0.32932229710207
H            2.21967965124662       -0.00239225064928       -1.16656101354874
H            2.14828405372418       -0.95982921910324        0.32788382920202
H            0.77099379282149        1.76642010710040       -0.06330698933522
H            0.63034352791889        0.74263838744269        1.36806887651388
H           -2.60719895584255        0.20468227708738       -0.40904166217533
H           -1.88152258981083        0.70384557580187        1.13011638887160
H           -1.75457581467048        1.76044157399304       -0.29428623448251
H            0.18779675122813       -1.81612731787096       -0.21054450395841
