 xtb: 6.7.1 (edcfbbe)
          04152520183D

 18 18  0     0  0            999 V2000
   -3.1731    0.1767   -0.0071 C   0  0  0  0  0  0  0  0  0  0  0  0
   -1.9622    0.8895    0.0045 O   0  0  0  0  0  0  0  0  0  0  0  0
   -0.7924    0.1830    0.0011 C   0  0  0  0  0  0  0  0  0  0  0  0
   -0.7007   -1.2040   -0.0048 C   0  0  0  0  0  0  0  0  0  0  0  0
    0.5522   -1.7976   -0.0023 C   0  0  0  0  0  0  0  0  0  0  0  0
    1.7042   -1.0418    0.0066 C   0  0  0  0  0  0  0  0  0  0  0  0
    1.6208    0.3529    0.0109 C   0  0  0  0  0  0  0  0  0  0  0  0
    0.3670    0.9515    0.0114 C   0  0  0  0  0  0  0  0  0  0  0  0
    2.7642    1.1246   -0.0548 N   0  0  0  0  0  0  0  0  0  0  0  0
   -3.9596    0.9302   -0.0064 H   0  0  0  0  0  0  0  0  0  0  0  0
   -3.2782   -0.4549    0.8815 H   0  0  0  0  0  0  0  0  0  0  0  0
   -3.2680   -0.4429   -0.9050 H   0  0  0  0  0  0  0  0  0  0  0  0
   -1.5808   -1.8261   -0.0099 H   0  0  0  0  0  0  0  0  0  0  0  0
    0.6223   -2.8757   -0.0046 H   0  0  0  0  0  0  0  0  0  0  0  0
    2.6735   -1.5182    0.0080 H   0  0  0  0  0  0  0  0  0  0  0  0
    0.2722    2.0265    0.0160 H   0  0  0  0  0  0  0  0  0  0  0  0
    2.6668    2.0858    0.2294 H   0  0  0  0  0  0  0  0  0  0  0  0
    3.6163    0.6825    0.2498 H   0  0  0  0  0  0  0  0  0  0  0  0
  1  2  1  0  0  0  0
  2  3  1  0  0  0  0
  3  4  4  0  0  0  0
  4  5  4  0  0  0  0
  5  6  4  0  0  0  0
  6  7  4  0  0  0  0
  3  8  4  0  0  0  0
  7  8  4  0  0  0  0
  7  9  1  0  0  0  0
  1 10  1  0  0  0  0
  1 11  1  0  0  0  0
  1 12  1  0  0  0  0
  4 13  1  0  0  0  0
  5 14  1  0  0  0  0
  6 15  1  0  0  0  0
  8 16  1  0  0  0  0
  9 17  1  0  0  0  0
  9 18  1  0  0  0  0
M  END
