 xtb: 6.7.1 (edcfbbe)
          04152519473D

 19 19  0     0  0            999 V2000
   -2.6234   -1.5443   -0.1119 C   0  0  0  0  0  0  0  0  0  0  0  0
   -1.9661   -0.1751    0.0107 C   0  0  0  0  0  0  0  0  0  0  0  0
   -0.4537   -0.1800   -0.0109 C   0  0  0  0  0  0  0  0  0  0  0  0
    0.2982   -1.3390   -0.1325 C   0  0  0  0  0  0  0  0  0  0  0  0
    1.6821   -1.3041   -0.1484 C   0  0  0  0  0  0  0  0  0  0  0  0
    2.3439   -0.0946   -0.0417 C   0  0  0  0  0  0  0  0  0  0  0  0
    1.6182    1.0739    0.0804 C   0  0  0  0  0  0  0  0  0  0  0  0
    0.2295    1.0380    0.0964 C   0  0  0  0  0  0  0  0  0  0  0  0
   -0.4176    2.2332    0.2200 O   0  0  0  0  0  0  0  0  0  0  0  0
   -3.7055   -1.4323   -0.0862 H   0  0  0  0  0  0  0  0  0  0  0  0
   -2.3295   -2.1908    0.7114 H   0  0  0  0  0  0  0  0  0  0  0  0
   -2.3538   -2.0212   -1.0511 H   0  0  0  0  0  0  0  0  0  0  0  0
   -2.3035    0.2819    0.9497 H   0  0  0  0  0  0  0  0  0  0  0  0
   -2.3281    0.4516   -0.8143 H   0  0  0  0  0  0  0  0  0  0  0  0
   -0.1981   -2.2924   -0.2169 H   0  0  0  0  0  0  0  0  0  0  0  0
    2.2397   -2.2236   -0.2443 H   0  0  0  0  0  0  0  0  0  0  0  0
    3.4227   -0.0582   -0.0533 H   0  0  0  0  0  0  0  0  0  0  0  0
    2.1043    2.0329    0.1656 H   0  0  0  0  0  0  0  0  0  0  0  0
   -1.3713    2.0957    0.2200 H   0  0  0  0  0  0  0  0  0  0  0  0
  1  2  1  0  0  0  0
  2  3  1  0  0  0  0
  3  4  4  0  0  0  0
  4  5  4  0  0  0  0
  5  6  4  0  0  0  0
  6  7  4  0  0  0  0
  3  8  4  0  0  0  0
  7  8  4  0  0  0  0
  8  9  1  0  0  0  0
  1 10  1  0  0  0  0
  1 11  1  0  0  0  0
  1 12  1  0  0  0  0
  2 13  1  0  0  0  0
  2 14  1  0  0  0  0
  4 15  1  0  0  0  0
  5 16  1  0  0  0  0
  6 17  1  0  0  0  0
  7 18  1  0  0  0  0
  9 19  1  0  0  0  0
M  END
