12
CONF1
C 0.0222810090 1.4165288803 -0.0000726554
C 0.8071271827 0.3177472342 -0.0000326033
C 0.2194268590 -1.0222238782 -0.0000367872
O 0.8219846585 -2.0747914615 0.0000051815
N -1.1896295975 -0.9904808531 -0.0000808689
C -2.0354142620 0.1068441237 -0.0001203522
O -3.2473660635 0.0370748343 -0.0001835933
N -1.3450268852 1.3157665176 -0.0000738603
Cl 2.5301830116 0.4442513206 0.0000183935
H 0.4324965178 2.4199972119 -0.0000840737
H -1.6489137386 -1.8920299838 -0.0000948275
H -1.9219361355 2.1422714003 -0.0002370066
