11
CONF1
C 0.4002825056 -1.7172542318 0.1513298195
C 0.4372924988 -0.2846382129 -0.3321259708
H 0.3085614407 -0.2221680512 -1.4156163744
C -0.5368682433 0.6469928593 0.3645808529
Cl -2.2492813580 0.1755176132 -0.0531096467
Cl 2.1040600799 0.4288922795 -0.0022103837
H -0.5850324576 -2.1442615989 -0.0572765327
H 1.1558614740 -2.3155231309 -0.3611637527
H 0.5842043435 -1.7666454057 1.2281231403
H -0.4390599685 0.5839313009 1.4503712185
H -0.4072143760 1.6781150096 0.0353346678
11
CONF3
C 0.3991515346 -1.8775816563 -0.1896198809
C 0.5558793828 -0.4842724629 -0.7623280015
H 1.0732442936 -0.5218219257 -1.7285874467
C -0.7433898102 0.2577555368 -1.0041608118
Cl -1.7854117281 0.3943013464 0.4727979506
Cl 1.6545494792 0.5093549421 0.3138983300
H 1.3695079429 -2.3724946830 -0.1175586612
H -0.0544116651 -1.8395859663 0.8027412028
H -0.2488673663 -2.4690994657 -0.8467847769
H -0.5556902242 1.2733399519 -1.3563496983
H -1.3282972061 -0.2876071791 -1.7519386737
11
CONF2
C 0.9697440371 -2.0985072904 0.3850525487
C 0.3502735409 -0.8377822181 -0.1950329204
H 0.0899879348 -0.9745821262 -1.2480108833
C -0.8734099369 -0.4267693884 0.5964024714
Cl -1.7854480437 0.9328879561 -0.1751683383
Cl 1.5871022898 0.5085638080 -0.1736734922
H 0.2567127472 -2.9271979962 0.3126952910
H 1.8716620670 -2.3698843430 -0.1665423716
H 1.2373155082 -1.9551659026 1.4356972094
H -1.5625521830 -1.2748227883 0.6531725502
H -0.6003469535 -0.1090087814 1.6053388527
