 xtb: 6.7.1 (edcfbbe)
          04152519393D

 22 23  0     0  0            999 V2000
    1.7407    0.2757    1.6979 C   0  0  0  0  0  0  0  0  0  0  0  0
    3.1156    0.2168    1.8184 C   0  0  0  0  0  0  0  0  0  0  0  0
    3.9087    0.0598    0.6911 C   0  0  0  0  0  0  0  0  0  0  0  0
    3.3103   -0.0347   -0.5637 C   0  0  0  0  0  0  0  0  0  0  0  0
    1.9314    0.0166   -0.6811 C   0  0  0  0  0  0  0  0  0  0  0  0
    1.1347    0.1667    0.4488 C   0  0  0  0  0  0  0  0  0  0  0  0
   -0.3336    0.2324    0.3336 C   0  0  0  0  0  0  0  0  0  0  0  0
   -1.0177    1.2925    0.9191 C   0  0  0  0  0  0  0  0  0  0  0  0
   -2.3954    1.3913    0.8296 C   0  0  0  0  0  0  0  0  0  0  0  0
   -3.1271    0.4176    0.1512 C   0  0  0  0  0  0  0  0  0  0  0  0
   -2.4549   -0.6584   -0.4275 C   0  0  0  0  0  0  0  0  0  0  0  0
   -1.0666   -0.7495   -0.3370 C   0  0  0  0  0  0  0  0  0  0  0  0
   -0.2819   -2.1208   -1.0149 Cl  0  0  0  0  0  0  0  0  0  0  0  0
   -3.3461   -1.8723   -1.2468 Cl  0  0  0  0  0  0  0  0  0  0  0  0
   -4.8326    0.5316    0.0325 Cl  0  0  0  0  0  0  0  0  0  0  0  0
   -3.2068    2.7182    1.5559 Cl  0  0  0  0  0  0  0  0  0  0  0  0
    4.2768   -0.2135   -1.9766 Cl  0  0  0  0  0  0  0  0  0  0  0  0
    5.6198   -0.0123    0.8478 Cl  0  0  0  0  0  0  0  0  0  0  0  0
    1.1291    0.3863    2.5796 H   0  0  0  0  0  0  0  0  0  0  0  0
    3.5848    0.2906    2.7865 H   0  0  0  0  0  0  0  0  0  0  0  0
    1.4846   -0.0433   -1.6603 H   0  0  0  0  0  0  0  0  0  0  0  0
   -0.4640    2.0593    1.4368 H   0  0  0  0  0  0  0  0  0  0  0  0
  1  2  4  0  0  0  0
  2  3  4  0  0  0  0
  3  4  4  0  0  0  0
  4  5  4  0  0  0  0
  1  6  4  0  0  0  0
  5  6  4  0  0  0  0
  6  7  1  0  0  0  0
  7  8  4  0  0  0  0
  8  9  4  0  0  0  0
  9 10  4  0  0  0  0
 10 11  4  0  0  0  0
  7 12  4  0  0  0  0
 11 12  4  0  0  0  0
 12 13  1  0  0  0  0
 11 14  1  0  0  0  0
 10 15  1  0  0  0  0
  9 16  1  0  0  0  0
  4 17  1  0  0  0  0
  3 18  1  0  0  0  0
  1 19  1  0  0  0  0
  2 20  1  0  0  0  0
  5 21  1  0  0  0  0
  8 22  1  0  0  0  0
M  END
