16
CONF1
C -2.6864512898 -0.9672748650 -0.0011881238
S -1.8395036214 0.6449369610 0.0004071373
C -0.1205604851 0.1996578158 0.0002516262
C 0.7966204910 1.2601076714 -0.0002514543
C 2.1598601324 1.0045575764 -0.0004769169
C 2.6353505192 -0.3058475739 -0.0002450723
C 1.7261032435 -1.3565900944 0.0003264256
C 0.3542433935 -1.1141704928 0.0006201802
H -2.4470719872 -1.5433348528 -0.8992400544
H -3.7547274780 -0.7390635247 -0.0026419252
H -2.4496226935 -1.5439498010 0.8971408239
H 0.4347994558 2.2841134874 -0.0005334573
H 2.8567282071 1.8368314749 -0.0009094805
H 3.7019348222 -0.5025705999 -0.0005095244
H 2.0808646083 -2.3826394131 0.0005616140
H -0.3295031057 -1.9541368223 0.0011640347
