20
CONF1
C -1.2502211696 -0.9671224790 1.2588175166
C -1.0086026008 -0.1160565058 0.0001195518
C -1.9364254126 1.1000082203 0.0008453927
C -1.2503674037 -0.9657376294 -1.2594786472
C 0.4384608352 0.3723659296 0.0003903379
O 0.7947142481 1.5277519512 0.0013299948
O 1.3103920689 -0.6669856173 -0.0004799863
C 2.7025252539 -0.2893788275 -0.0001902135
H -1.0621249397 -0.3850729724 2.1667691480
H -2.2940523509 -1.2969971009 1.2781242210
H -0.6067206669 -1.8498311691 1.2722555056
H -1.7685846602 1.7213268379 0.8839935145
H -2.9781674968 0.7644849286 0.0003299284
H -1.7681473189 1.7227106504 -0.8812437732
H -2.2941514945 -1.2957540541 -1.2789079837
H -1.0625719302 -0.3826476929 -2.1668234454
H -0.6067424081 -1.8483358237 -1.2740544153
H 2.9381091536 0.2972786800 0.8915852811
H 2.9369525935 0.3031798645 -0.8883307085
H 3.2589577990 -1.2266512101 -0.0035743257
