 xtb: 6.7.1 (edcfbbe)
          04152519593D

 21 21  0     0  0            999 V2000
   -2.6337   -0.6860   -0.7502 C   0  0  0  0  0  0  0  0  0  0  0  0
   -1.8774   -0.4527    0.5596 C   0  0  0  0  0  0  0  0  0  0  0  0
   -0.4034   -0.2954    0.3017 C   0  0  0  0  0  0  0  0  0  0  0  0
    0.3925   -1.4330    0.2552 C   0  0  0  0  0  0  0  0  0  0  0  0
    1.7459   -1.3549   -0.0160 C   0  0  0  0  0  0  0  0  0  0  0  0
    2.3236   -0.1194   -0.2454 C   0  0  0  0  0  0  0  0  0  0  0  0
    1.5405    1.0195   -0.2006 C   0  0  0  0  0  0  0  0  0  0  0  0
    0.1791    0.9526    0.0674 C   0  0  0  0  0  0  0  0  0  0  0  0
   -0.6276    2.2174    0.1139 C   0  0  0  0  0  0  0  0  0  0  0  0
   -2.2685   -1.5856   -1.2405 H   0  0  0  0  0  0  0  0  0  0  0  0
   -2.4927    0.1502   -1.4311 H   0  0  0  0  0  0  0  0  0  0  0  0
   -3.6986   -0.8017   -0.5601 H   0  0  0  0  0  0  0  0  0  0  0  0
   -2.0382   -1.3106    1.2165 H   0  0  0  0  0  0  0  0  0  0  0  0
   -2.2779    0.4303    1.0582 H   0  0  0  0  0  0  0  0  0  0  0  0
   -0.0608   -2.3976    0.4378 H   0  0  0  0  0  0  0  0  0  0  0  0
    2.3457   -2.2528   -0.0466 H   0  0  0  0  0  0  0  0  0  0  0  0
    3.3799   -0.0414   -0.4576 H   0  0  0  0  0  0  0  0  0  0  0  0
    1.9952    1.9842   -0.3793 H   0  0  0  0  0  0  0  0  0  0  0  0
   -0.0111    3.0711   -0.1570 H   0  0  0  0  0  0  0  0  0  0  0  0
   -1.4712    2.1709   -0.5722 H   0  0  0  0  0  0  0  0  0  0  0  0
   -1.0194    2.3854    1.1173 H   0  0  0  0  0  0  0  0  0  0  0  0
  1  2  1  0  0  0  0
  2  3  1  0  0  0  0
  3  4  4  0  0  0  0
  4  5  4  0  0  0  0
  5  6  4  0  0  0  0
  6  7  4  0  0  0  0
  3  8  4  0  0  0  0
  7  8  4  0  0  0  0
  8  9  1  0  0  0  0
  1 10  1  0  0  0  0
  1 11  1  0  0  0  0
  1 12  1  0  0  0  0
  2 13  1  0  0  0  0
  2 14  1  0  0  0  0
  4 15  1  0  0  0  0
  5 16  1  0  0  0  0
  6 17  1  0  0  0  0
  7 18  1  0  0  0  0
  9 19  1  0  0  0  0
  9 20  1  0  0  0  0
  9 21  1  0  0  0  0
M  END
