24
 xtb: 6.7.1 (edcfbbe)
C           -2.02446437145128       -0.60660162193827       -0.69276472588276
C           -1.22187415907672       -0.07079448198943        0.51624490541178
H           -1.91527578359149       -0.01209157108812        1.36899608249072
C           -0.65244203756182        1.32906532980937        0.26802825192428
H           -1.38037862455157        1.91927216630461       -0.31038090428979
C            0.67701165073735        1.30978799925080       -0.51743746029378
H            1.12678267743562        2.30361735032779       -0.40667739800532
C            1.65108552879695        0.27634298996847        0.07514308380427
H            2.49389678025768        0.16111881930837       -0.61666736295493
C            0.95959109768065       -1.08284319279740        0.21963357942066
H            1.59311976310248       -1.77010237308456        0.79505478655030
O           -0.22831917472202       -0.99114963057406        0.98908939854302
O            0.71426453284322       -1.58272923085075       -1.09151666017116
O            2.18764061543222        0.68533259667759        1.32048256530058
O            0.44863461875568        1.09242960252446       -1.90384332065829
O           -0.34673762751532        1.98408191768640        1.51236873784081
O           -2.10275976612753       -2.03339065245749       -0.71183643700214
H           -1.57301635756219       -0.31343457956400       -1.64109729806414
H           -3.03044412715016       -0.16121323002233       -0.65241496847760
H           -0.03606699861365       -2.19902306055451       -1.03119301980870
H            1.45248207832211        1.02480079496520        1.85222382288287
H            0.51594300218481        0.13579568793572       -2.05106612484062
H           -1.12715937553902        1.95875275112128        2.07747745725004
H           -2.26274224140148       -2.34133813634379        0.18909305874113
