11
CONF1
C -1.2672651475 0.2682211349 -0.0000065860
C 0.0000015405 -0.5825212278 -0.0000026454
C 1.2672724095 0.2682151024 0.0000120941
H -1.3034663259 0.9145298924 -0.8845171926
H -2.1703950012 -0.3510538917 -0.0000355039
H -1.3034970262 0.9144918976 0.8845304850
H -0.0000073246 -1.2397868125 0.8783721962
H 0.0000067897 -1.2397758191 -0.8783857914
H 2.1703994093 -0.3510640099 0.0000403389
H 1.3034726682 0.9145176166 0.8845273522
H 1.3035105882 0.9144918583 -0.8845203266
