 xtb: 6.7.1 (edcfbbe)
          04162512053D

 24 24  0     0  0            999 V2000
   -2.5639   -0.6671   -0.3225 C   0  0  0  0  0  0  0  0  0  0  0  0
   -1.1889   -0.2863    0.2333 C   0  0  0  0  0  0  0  0  0  0  0  0
   -1.2444   -0.2341    1.3309 H   0  0  0  0  0  0  0  0  0  0  0  0
   -0.7176    1.0725   -0.2994 C   0  0  0  0  0  0  0  0  0  0  0  0
   -0.7130    1.0456   -1.4019 H   0  0  0  0  0  0  0  0  0  0  0  0
    0.7173    1.3420    0.1738 C   0  0  0  0  0  0  0  0  0  0  0  0
    0.7231    1.4349    1.2725 H   0  0  0  0  0  0  0  0  0  0  0  0
    1.6156    0.1674   -0.2156 C   0  0  0  0  0  0  0  0  0  0  0  0
    1.6583    0.0968   -1.3164 H   0  0  0  0  0  0  0  0  0  0  0  0
    1.0102   -1.1382    0.3366 C   0  0  0  0  0  0  0  0  0  0  0  0
    1.0205   -1.0965    1.4395 H   0  0  0  0  0  0  0  0  0  0  0  0
   -0.2911   -1.3179   -0.1498 O   0  0  0  0  0  0  0  0  0  0  0  0
    1.7786   -2.2343   -0.0261 O   0  0  0  0  0  0  0  0  0  0  0  0
    2.9020    0.3849    0.3082 O   0  0  0  0  0  0  0  0  0  0  0  0
    1.1470    2.5470   -0.4104 O   0  0  0  0  0  0  0  0  0  0  0  0
   -1.5930    2.0631    0.1607 O   0  0  0  0  0  0  0  0  0  0  0  0
   -3.0422   -1.8540    0.2432 O   0  0  0  0  0  0  0  0  0  0  0  0
   -2.4855   -0.7572   -1.4152 H   0  0  0  0  0  0  0  0  0  0  0  0
   -3.2759    0.1203   -0.0735 H   0  0  0  0  0  0  0  0  0  0  0  0
    1.5163   -2.5008   -0.9163 H   0  0  0  0  0  0  0  0  0  0  0  0
    3.3594   -0.4656    0.3375 H   0  0  0  0  0  0  0  0  0  0  0  0
    2.0941    2.6261   -0.2437 H   0  0  0  0  0  0  0  0  0  0  0  0
   -1.1796    2.9158   -0.0288 H   0  0  0  0  0  0  0  0  0  0  0  0
   -2.3518   -2.5216    0.1478 H   0  0  0  0  0  0  0  0  0  0  0  0
  1  2  1  0  0  0  0
  2  3  1  0  0  0  0
  2  4  1  0  0  0  0
  4  5  1  0  0  0  0
  4  6  1  0  0  0  0
  6  7  1  0  0  0  0
  6  8  1  0  0  0  0
  8  9  1  0  0  0  0
  8 10  1  0  0  0  0
 10 11  1  0  0  0  0
  2 12  1  0  0  0  0
 10 12  1  0  0  0  0
 10 13  1  0  0  0  0
  8 14  1  0  0  0  0
  6 15  1  0  0  0  0
  4 16  1  0  0  0  0
  1 17  1  0  0  0  0
  1 18  1  0  0  0  0
  1 19  1  0  0  0  0
 13 20  1  0  0  0  0
 14 21  1  0  0  0  0
 15 22  1  0  0  0  0
 16 23  1  0  0  0  0
 17 24  1  0  0  0  0
M  END
