 xtb: 6.7.1 (edcfbbe)
          04152519063D

 17 17  0     0  0            999 V2000
   -1.8351    1.4341    0.1119 C   0  0  0  0  0  0  0  0  0  0  0  0
   -0.5265    0.7133    0.0354 C   0  0  0  0  0  0  0  0  0  0  0  0
    0.6775    1.4029    0.0340 C   0  0  0  0  0  0  0  0  0  0  0  0
    1.8720    0.7040   -0.0379 C   0  0  0  0  0  0  0  0  0  0  0  0
    1.8109   -0.6769   -0.1064 C   0  0  0  0  0  0  0  0  0  0  0  0
    0.6731   -1.3487   -0.1061 N   0  0  0  0  0  0  0  0  0  0  0  0
   -0.4712   -0.6854   -0.0375 C   0  0  0  0  0  0  0  0  0  0  0  0
   -1.7161   -1.5158   -0.0418 C   0  0  0  0  0  0  0  0  0  0  0  0
   -2.3929    1.1211    0.9941 H   0  0  0  0  0  0  0  0  0  0  0  0
   -1.6795    2.5092    0.1618 H   0  0  0  0  0  0  0  0  0  0  0  0
   -2.4464    1.2104   -0.7619 H   0  0  0  0  0  0  0  0  0  0  0  0
    0.6795    2.4834    0.0890 H   0  0  0  0  0  0  0  0  0  0  0  0
    2.8202    1.2191   -0.0404 H   0  0  0  0  0  0  0  0  0  0  0  0
    2.7078   -1.2799   -0.1645 H   0  0  0  0  0  0  0  0  0  0  0  0
   -1.4444   -2.5652   -0.1034 H   0  0  0  0  0  0  0  0  0  0  0  0
   -2.2919   -1.3468    0.8670 H   0  0  0  0  0  0  0  0  0  0  0  0
   -2.3457   -1.2573   -0.8922 H   0  0  0  0  0  0  0  0  0  0  0  0
  1  2  1  0  0  0  0
  2  3  4  0  0  0  0
  3  4  4  0  0  0  0
  4  5  4  0  0  0  0
  5  6  4  0  0  0  0
  2  7  4  0  0  0  0
  6  7  4  0  0  0  0
  7  8  1  0  0  0  0
  1  9  1  0  0  0  0
  1 10  1  0  0  0  0
  1 11  1  0  0  0  0
  3 12  1  0  0  0  0
  4 13  1  0  0  0  0
  5 14  1  0  0  0  0
  8 15  1  0  0  0  0
  8 16  1  0  0  0  0
  8 17  1  0  0  0  0
M  END
