 xtb: 6.7.1 (edcfbbe)
          04152520043D

 29 29  0     0  0            999 V2000
   -3.3300   -0.3087   -0.1724 C   0  0  0  0  0  0  0  0  0  0  0  0
   -2.1753    0.5496    0.3385 C   0  0  0  0  0  0  0  0  0  0  0  0
   -2.5865    1.3145    1.0064 H   0  0  0  0  0  0  0  0  0  0  0  0
   -1.4569    1.2393   -0.8332 C   0  0  0  0  0  0  0  0  0  0  0  0
    0.0471    1.3462   -0.5962 C   0  0  0  0  0  0  0  0  0  0  0  0
    0.6445   -0.0594   -0.5806 C   0  0  0  0  0  0  0  0  0  0  0  0
    0.5873   -0.4674   -1.5979 H   0  0  0  0  0  0  0  0  0  0  0  0
   -0.1717   -0.9937    0.2942 C   0  0  0  0  0  0  0  0  0  0  0  0
    0.0071   -2.1872    0.3036 O   0  0  0  0  0  0  0  0  0  0  0  0
   -1.1974   -0.3091    1.1605 C   0  0  0  0  0  0  0  0  0  0  0  0
    2.1310   -0.1488   -0.1615 C   0  0  0  0  0  0  0  0  0  0  0  0
    3.0207    0.6657   -1.0971 C   0  0  0  0  0  0  0  0  0  0  0  0
    2.3611    0.2703    1.2888 C   0  0  0  0  0  0  0  0  0  0  0  0
   -2.9501   -1.1379   -0.7656 H   0  0  0  0  0  0  0  0  0  0  0  0
   -3.9043   -0.7160    0.6568 H   0  0  0  0  0  0  0  0  0  0  0  0
   -3.9986    0.2850   -0.7922 H   0  0  0  0  0  0  0  0  0  0  0  0
   -1.6183    0.6604   -1.7460 H   0  0  0  0  0  0  0  0  0  0  0  0
   -1.8833    2.2306   -0.9955 H   0  0  0  0  0  0  0  0  0  0  0  0
    0.5017    1.9291   -1.3986 H   0  0  0  0  0  0  0  0  0  0  0  0
    0.2359    1.8667    0.3428 H   0  0  0  0  0  0  0  0  0  0  0  0
   -1.7428   -1.0572    1.7376 H   0  0  0  0  0  0  0  0  0  0  0  0
   -0.6512    0.3297    1.8581 H   0  0  0  0  0  0  0  0  0  0  0  0
    2.4075   -1.2053   -0.2517 H   0  0  0  0  0  0  0  0  0  0  0  0
    2.8414    0.3964   -2.1354 H   0  0  0  0  0  0  0  0  0  0  0  0
    4.0677    0.4761   -0.8717 H   0  0  0  0  0  0  0  0  0  0  0  0
    2.8371    1.7307   -0.9767 H   0  0  0  0  0  0  0  0  0  0  0  0
    2.0953    1.3130    1.4474 H   0  0  0  0  0  0  0  0  0  0  0  0
    3.4126    0.1520    1.5413 H   0  0  0  0  0  0  0  0  0  0  0  0
    1.7801   -0.3507    1.9669 H   0  0  0  0  0  0  0  0  0  0  0  0
  1  2  1  0  0  0  0
  2  3  1  0  0  0  0
  2  4  1  0  0  0  0
  4  5  1  0  0  0  0
  5  6  1  0  0  0  0
  6  7  1  0  0  0  0
  6  8  1  0  0  0  0
  8  9  2  0  0  0  0
  2 10  1  0  0  0  0
  8 10  1  0  0  0  0
  6 11  1  0  0  0  0
 11 12  1  0  0  0  0
 11 13  1  0  0  0  0
  1 14  1  0  0  0  0
  1 15  1  0  0  0  0
  1 16  1  0  0  0  0
  4 17  1  0  0  0  0
  4 18  1  0  0  0  0
  5 19  1  0  0  0  0
  5 20  1  0  0  0  0
 10 21  1  0  0  0  0
 10 22  1  0  0  0  0
 11 23  1  0  0  0  0
 12 24  1  0  0  0  0
 12 25  1  0  0  0  0
 12 26  1  0  0  0  0
 13 27  1  0  0  0  0
 13 28  1  0  0  0  0
 13 29  1  0  0  0  0
M  END
