 xtb: 6.7.1 (edcfbbe)
          04162510273D

 15 14  0     0  0            999 V2000
   -2.1894    0.0934   -0.4631 C   0  0  0  0  0  0  0  0  0  0  0  0
   -1.0366    0.4317    0.4824 C   0  0  0  0  0  0  0  0  0  0  0  0
   -0.0088   -0.6569    0.4789 C   0  0  0  0  0  0  0  0  0  0  0  0
    1.2690   -0.5679    0.1436 C   0  0  0  0  0  0  0  0  0  0  0  0
    2.0164    0.6464   -0.3020 C   0  0  0  0  0  0  0  0  0  0  0  0
   -2.9446    0.8760   -0.4399 H   0  0  0  0  0  0  0  0  0  0  0  0
   -2.6567   -0.8458   -0.1746 H   0  0  0  0  0  0  0  0  0  0  0  0
   -1.8237   -0.0053   -1.4829 H   0  0  0  0  0  0  0  0  0  0  0  0
   -0.5995    1.3869    0.1932 H   0  0  0  0  0  0  0  0  0  0  0  0
   -1.4305    0.5383    1.4978 H   0  0  0  0  0  0  0  0  0  0  0  0
   -0.3968   -1.6229    0.7794 H   0  0  0  0  0  0  0  0  0  0  0  0
    1.8781   -1.4628    0.1925 H   0  0  0  0  0  0  0  0  0  0  0  0
    1.3753    1.5178   -0.3908 H   0  0  0  0  0  0  0  0  0  0  0  0
    2.4833    0.4577   -1.2686 H   0  0  0  0  0  0  0  0  0  0  0  0
    2.8121    0.8718    0.4085 H   0  0  0  0  0  0  0  0  0  0  0  0
  1  2  1  0  0  0  0
  2  3  1  0  0  0  0
  3  4  2  0  0  0  0
  4  5  1  0  0  0  0
  1  6  1  0  0  0  0
  1  7  1  0  0  0  0
  1  8  1  0  0  0  0
  2  9  1  0  0  0  0
  2 10  1  0  0  0  0
  3 11  1  0  0  0  0
  4 12  1  0  0  0  0
  5 13  1  0  0  0  0
  5 14  1  0  0  0  0
  5 15  1  0  0  0  0
M  END
