 xtb: 6.7.1 (edcfbbe)
          04152519513D

 10  9  0     0  0            999 V2000
   -0.5952    0.0639    0.4647 C   0  0  0  0  0  0  0  0  0  0  0  0
    0.6022   -0.1122   -0.4741 C   0  0  0  0  0  0  0  0  0  0  0  0
    1.7764    0.0441    0.2880 O   0  0  0  0  0  0  0  0  0  0  0  0
   -1.8242   -0.0343   -0.2080 O   0  0  0  0  0  0  0  0  0  0  0  0
   -0.4960    1.0259    0.9843 H   0  0  0  0  0  0  0  0  0  0  0  0
   -0.5905   -0.7327    1.2105 H   0  0  0  0  0  0  0  0  0  0  0  0
    0.5550    0.6452   -1.2740 H   0  0  0  0  0  0  0  0  0  0  0  0
    0.5570   -1.1068   -0.9382 H   0  0  0  0  0  0  0  0  0  0  0  0
    2.5414   -0.1250   -0.2714 H   0  0  0  0  0  0  0  0  0  0  0  0
   -1.8864    0.6776   -0.8548 H   0  0  0  0  0  0  0  0  0  0  0  0
  1  2  1  0  0  0  0
  2  3  1  0  0  0  0
  1  4  1  0  0  0  0
  1  5  1  0  0  0  0
  1  6  1  0  0  0  0
  2  7  1  0  0  0  0
  2  8  1  0  0  0  0
  3  9  1  0  0  0  0
  4 10  1  0  0  0  0
M  END
