17
 xtb: 6.7.1 (edcfbbe)
C           -0.82826294398975       -2.29228525452595        0.00014178674295
C            0.07041660521063       -1.08231217667703        0.00005049154387
C            1.45554348359613       -1.25617859729987       -0.00024966339729
C            2.32223156134833       -0.16846467398102       -0.00024345328432
C            1.82002419560516        1.13160800703269        0.00004605956606
C            0.44958279460739        1.32715572324012        0.00026353216742
C           -0.42934102152101        0.23657312816588        0.00025473282026
C           -1.88024838215364        0.51329408883712        0.00040474715583
O           -2.36208563466083        1.62936780198576        0.00006067937860
H           -1.47601083488328       -2.31897845830392       -0.88193286306994
H           -0.22905957144417       -3.20537710621763       -0.00032761749078
H           -1.47521201797659       -2.31938355298578        0.88279935316118
H            1.86134936050074       -2.26372976428488       -0.00048532472650
H            3.39460135890449       -0.33743314668207       -0.00046728690869
H            2.49582698947853        1.98034360614966        0.00008694216317
H            0.02009019314178        2.32374606344092        0.00043284100998
H           -2.54453028593893       -0.37620760856964        0.00119472263833
