9
CONF1
C 0.2554313196 -0.5358375286 0.0006473890
C 1.3922494122 0.1520062884 -0.0009174122
F 2.5829281559 -0.3935507971 -0.0010272583
F 1.4318534725 1.4658358535 -0.0029888144
C -1.1010819797 0.1106378381 0.0002551962
F -1.2952015996 0.8883267940 1.0918410805
F -1.2816565093 0.9123589057 -1.0758892164
F -2.0598845543 -0.8285575447 -0.0157898028
F 0.2794761478 -1.8768683347 0.0038140383
