12
CONF1
C 0.0000356216 -2.5732753775 0.0000217935
C 1.2070206167 -1.8863677092 0.0000173031
C 1.2017870015 -0.4971817245 0.0000047234
C -0.0000003858 0.2198981367 -0.0000013496
C -1.2017686901 -0.4972125816 0.0000049107
C -1.2069668067 -1.8863984646 0.0000160984
Cl -2.7284911259 0.3487343844 -0.0000054432
Cl -0.0000251506 1.9543615721 -0.0000172568
Cl 2.7284892183 0.3488022779 0.0000000819
H 0.0000493777 -3.6573997871 0.0000325509
H 2.1499850475 -2.4200797146 0.0000234083
H -2.1499175301 -2.4201345863 0.0000196771
