12
CONF1
C 0.0000644393 -2.5714921238 0.0000900191
C 1.2054806769 -1.8829632966 0.0000578156
C 1.2031073828 -0.4927291473 0.0000124527
C -0.0000070489 0.2247534828 0.0000013552
C -1.2030812303 -0.4927892774 0.0000378101
C -1.2053850985 -1.8830224912 0.0000788170
Cl -2.7273675965 0.3459919801 0.0000360953
Cl -0.0000554308 1.9535957724 -0.0000549416
Cl 2.7273564406 0.3461237452 -0.0000299944
H 0.0000945160 -3.6557694568 0.0001246507
H 2.1519089875 -2.4097126407 0.0000692284
H -2.1517842097 -2.4098230781 0.0001087006
