24
CONF1
C -3.6591067015 0.2364120622 -0.0013574907
C -2.1655888639 0.0692287180 0.0012991197
C -1.5713885113 -1.1933488206 0.0000149521
C -0.1834401201 -1.3354619645 -0.0009802360
C 0.6573151447 -0.2221947242 -0.0005240820
C 0.0605232158 1.0455028894 0.0011420196
C -1.3217482248 1.1873629480 0.0021442018
C 2.1639948833 -0.3786742340 -0.0010680746
C 2.7906762142 0.2281163764 1.2599549642
C 2.7902601596 0.2321357077 -1.2603498421
H -4.1659225884 -0.7312500337 0.0339767903
H -3.9914775097 0.8283738668 0.8583617192
H -3.9948922929 0.7637023109 -0.9012934793
H -2.2007727589 -2.0796477608 0.0000318870
H 0.2520584925 -2.3316999892 -0.0017049859
H 0.6849914641 1.9348814704 0.0021214664
H -1.7586257366 2.1831450764 0.0037073504
H 2.3778773644 -1.4548322233 -0.0027981286
H 2.6262946562 1.3107163180 1.2954890502
H 3.8716864251 0.0520712600 1.2725996629
H 2.3616989348 -0.2110540925 2.1664243329
H 2.6255683479 1.3147906522 -1.2925792679
H 2.3612639289 -0.2044121098 -2.1680755208
H 3.8713220422 0.0564673469 -1.2737127665
