24
CONF1
C -3.6590061900 -0.2351613349 0.0057418299
C -2.1638973928 -0.0696695173 -0.0052137518
C -1.5691166339 1.1905832390 -0.0006902890
C -0.1830492146 1.3308166321 0.0031962130
C 0.6561278218 0.2182155303 0.0020138132
C 0.0580869457 -1.0466727859 -0.0037813901
C -1.3226445079 -1.1870226984 -0.0079678501
C 2.1630079094 0.3745444694 0.0034601755
C 2.7916964930 -0.2207877763 -1.2631508393
C 2.7915809810 -0.2351421598 1.2632295552
H -4.1656985611 0.7217720045 -0.1411068004
H -3.9871330132 -0.9190538955 -0.7836945700
H -4.0010021491 -0.6529139701 0.9594588378
H -2.1967663418 2.0778231496 -0.0009897554
H 0.2530062452 2.3265927009 0.0053327314
H 0.6799078576 -1.9376184644 -0.0072074948
H -1.7596867329 -2.1824794539 -0.0139985089
H 2.3760232282 1.4516651805 0.0095865587
H 2.6306253053 -1.3030869396 -1.3080994648
H 3.8721733655 -0.0428788661 -1.2781329053
H 2.3548471581 0.2210856551 -2.1634500985
H 2.3549315799 0.1965599615 2.1685424357
H 3.8720613339 -0.0574345202 1.2800604194
H 2.6306893606 -1.3179006406 1.2960163482
