 xtb: 6.7.1 (edcfbbe)
          04152520283D

 11 10  0     0  0            999 V2000
   -2.3274   -0.8341   -0.2856 C   0  0  0  0  0  0  0  0  0  0  0  0
   -0.9273   -0.5840   -0.2739 O   0  0  0  0  0  0  0  0  0  0  0  0
   -0.5538    0.6534    0.0162 C   0  0  0  0  0  0  0  0  0  0  0  0
   -1.3070    1.5580    0.2587 O   0  0  0  0  0  0  0  0  0  0  0  0
    0.9538    0.8388   -0.0129 C   0  0  0  0  0  0  0  0  0  0  0  0
    1.8428   -0.6947    0.0370 Cl  0  0  0  0  0  0  0  0  0  0  0  0
   -2.4433   -1.8866   -0.5292 H   0  0  0  0  0  0  0  0  0  0  0  0
   -2.8164   -0.2080   -1.0343 H   0  0  0  0  0  0  0  0  0  0  0  0
   -2.7583   -0.6146    0.6928 H   0  0  0  0  0  0  0  0  0  0  0  0
    1.2562    1.4470    0.8403 H   0  0  0  0  0  0  0  0  0  0  0  0
    1.2255    1.3556   -0.9357 H   0  0  0  0  0  0  0  0  0  0  0  0
  1  2  1  0  0  0  0
  2  3  1  0  0  0  0
  3  4  2  0  0  0  0
  3  5  1  0  0  0  0
  5  6  1  0  0  0  0
  1  7  1  0  0  0  0
  1  8  1  0  0  0  0
  1  9  1  0  0  0  0
  5 10  1  0  0  0  0
  5 11  1  0  0  0  0
M  END
