29
 xtb: 6.7.1 (edcfbbe)
C           -3.72780757539284        0.05045067124474       -0.10878995428338
C           -2.25275375519440        0.02130073523325        0.28226776448628
H           -2.16959009914844       -0.39128671912410        1.29885571343674
C           -1.63352793548385        1.42009061605328        0.28967357415829
C           -0.15150707597932        1.37827882831392        0.65718695965911
C            0.66231876773952        0.49036995088888       -0.31239875083769
H            0.47872117286326        0.89507799963325       -1.32188977756870
C            0.02764948462492       -0.89445741177986       -0.31566858508037
O            0.62034505423926       -1.91819765771643       -0.03658566554911
C           -1.45125197886029       -0.89983593319652       -0.65877883574471
C            2.18105409701275        0.54511389438639       -0.06509322121963
C            2.60522034230307        0.06843832004974        1.32782325349743
C            2.95816280012866       -0.19594220181924       -1.15763550839151
H           -4.16338582471480       -0.95352575640147       -0.09301690429025
H           -4.30345055931735        0.68001123194594        0.57753039029781
H           -3.85049901010077        0.45432572480015       -1.12043500425553
H           -1.75576174215886        1.87230310302132       -0.70566952420232
H           -2.17684237978947        2.05975097401335        0.99574801375445
H            0.27720988460692        2.38760246599208        0.65209357142585
H           -0.04390460602300        0.99330813131670        1.67873205034157
H           -1.57285132364564       -0.53269886645412       -1.68871481439468
H           -1.81545130469789       -1.93010282868437       -0.61546937932618
H            2.44486159758649        1.61122618028095       -0.14164917036472
H            2.13765774366815        0.65745258252021        2.12255228732035
H            3.68917505461596        0.17460516059615        1.43948195703507
H            2.34834470098289       -0.98290628436130        1.47486580179385
H            2.66900724768807        0.15113790052996       -2.15611604122583
H            2.77855384426420       -1.27216962912794       -1.10104201511110
H            4.03312339579213       -0.02278498268208       -1.04316267117170
