22
 xtb: 6.7.1 (edcfbbe)
C            1.23490341588958        0.72346548078538       -1.45661787002658
C            2.61114540881715        0.83660805335141       -1.58285681514587
C            3.44548297493040        0.43057869589244       -0.54513567291696
C            2.89086669856443       -0.09254289368949        0.62584172289802
C            1.51057730249506       -0.20760590848487        0.74863144752951
C            0.67925937593600        0.19960474997020       -0.29034994530630
C           -0.79329587207917        0.07172060972287       -0.14879558739829
C           -1.57402737001466        1.17817228447239        0.21115054253886
C           -2.96013753512618        1.05431415507456        0.34212237339108
C           -3.57567719512993       -0.16918411427205        0.11818678450422
C           -2.81430362557768       -1.27337284836946       -0.23812859295131
C           -1.42783177989007       -1.15744797359970       -0.37286835455581
Cl          -0.47667675929931       -2.53368713992846       -0.83468653766129
Cl          -3.62242764415630       -2.78507109374447       -0.51318032226043
Cl          -3.94703129772680        2.41072130786124        0.78971878591871
Cl          -0.80103618961471        2.70335567030633        0.50852215456781
Cl           3.89762435045326       -0.60978708915435        1.94622024271560
Cl           5.16702372207198        0.58552375155010       -0.73356955615583
H            0.58985217610608        1.04412322587332       -2.26746215707276
H            3.05217596961301        1.24085291740474       -2.48649340567027
H            1.09065361285956       -0.61838676299969        1.65971832255321
H           -4.64925359500432       -0.26222662970224        0.22157650856197
