12
CONF1
C 1.1970620156 -1.2148826736 -0.0000162898
C 1.8664090208 -0.0000060419 -0.0000592990
C 1.1970700208 1.2148749565 -0.0000429262
C -0.1917379042 1.2005442060 0.0000020585
C -0.9104765589 0.0000029600 0.0000141145
C -0.1917457864 -1.2005427198 0.0000127616
Cl -1.0315667616 -2.7253485640 0.0000501762
Cl -2.6411492275 0.0000070035 0.0000510624
Cl -1.0315475568 2.7253563984 -0.0000128130
Cl 3.6161711451 -0.0000117639 -0.0000873397
H 1.7345599559 -2.1547077090 -0.0000129352
H 1.7345741154 2.1546963472 -0.0000752454
