10
 xtb: 6.7.1 (edcfbbe)
C           -0.58242305964279        0.06715818670966        0.45554373190891
C            0.60322993458122       -0.11102012171398       -0.48107942595151
O            1.78578350271577        0.03837202032789        0.30665443571060
O           -1.81955774257445       -0.06954769684274       -0.24295076756927
H           -0.50487337950392        1.03663891247877        0.96924968561434
H           -0.56811261140111       -0.71724570190620        1.21784804719903
H            0.55764092863410        0.64927676619041       -1.27979755795217
H            0.54617944577464       -1.10434039919987       -0.95018366350175
H            2.54771427201670       -0.14113428154396       -0.25249735914110
H           -1.92592513034284        0.69747961865240       -0.81579624435818
