13
 xtb: 6.7.1 (edcfbbe)
C            1.20809212583903        1.26563351989047        0.04832190403940
C            0.43466447061245       -0.00006890463336       -0.34512731042607
C            1.20934171705396       -1.26503787508824        0.04805210357346
C           -0.89483749910562       -0.00118583618544        0.36968470065995
O           -1.97799337600484       -0.00014474393716       -0.16352824654011
H            0.66777608556899        2.17197238193945       -0.24089718772574
H            2.18580664055475        1.27756324246840       -0.44318993773376
H            1.37771085018252        1.29694453524356        1.13091983443689
H            0.23077536600340        0.00004286309750       -1.42115957712142
H            0.66996413194781       -2.17187785821156       -0.24135394099341
H            1.37896652536914       -1.29638948429019        1.13065154892575
H            2.18707083444465       -1.27582944730311       -0.44344785259999
H           -0.80929916207004       -0.00052542273010        1.48692147860475
