10
 xtb: 6.7.1 (edcfbbe)
C            1.86459501858365        0.18417472717362        0.18831810144606
C            0.69649117146181       -0.05218510971229       -0.39882864733540
C           -0.54051890380838       -0.46187201130243        0.33005407734333
O           -1.60599359960741        0.41105984950641       -0.06933471494903
H            2.74629116469828        0.44791212600129       -0.38661514189442
H            1.97960923885411        0.12018180882043        1.26764677055100
H            0.59216705855602        0.03234792720774       -1.47935657098096
H           -0.36996991541902       -0.41681495168105        1.41683352796534
H           -0.78403726418707       -1.50490349072211        0.06589179968899
H           -2.43055682339180        0.04870542082015        0.27129584042489
