16
 xtb: 6.7.1 (edcfbbe)
C           -2.68645129096830       -0.96727486539508       -0.00118812384818
S           -1.83950362223759        0.64493696133218        0.00040713725425
C           -0.12056048511235        0.19965781584405        0.00025162624987
C            0.79662049139370        1.26010767193118       -0.00025145425834
C            2.15986013334614        1.00455757686873       -0.00047691693215
C            2.63535052034488       -0.30584757404396       -0.00024507228577
C            1.72610324427307       -1.35659009503703        0.00032642556628
C            0.35424339370382       -1.11417049331294        0.00062018016005
H           -2.44707198832675       -1.54333485349812       -0.89924005476549
H           -3.75472747963647       -0.73906352499073       -0.00264192517205
H           -2.44962269463521       -1.54394980173115        0.89714082426582
H            0.43479945594839        2.28411348841014       -0.00053345728407
H            2.85672820840796        1.83683147576134       -0.00090948047330
H            3.70193482383662       -0.50257060009974       -0.00050952442661
H            2.08086460919798       -2.38263941420434        0.00056161403296
H           -0.32950310582781       -1.95413682318070        0.00116403468335
