9
CONF1
C 0.9690435776 0.7906126612 0.0843706550
C -0.3475586733 0.0437138255 0.0014496766
F -1.3912305483 0.8959116424 0.1454991630
F -0.4648540476 -0.9031774453 0.9660603220
F -0.5068138577 -0.5902093646 -1.1854936602
O 2.0688201793 -0.0860642717 -0.0883503039
H 0.9810472437 1.5226728761 -0.7280758303
H 0.9950156260 1.3186084787 1.0449276770
H 2.2208274390 -0.5484126262 0.7463248442
