24
CONF1
C -2.6836073244 -1.7150115068 0.8342716700
C -2.3281307627 -1.0091789093 -0.4825616584
C -1.3029884513 0.0795934282 -0.2933720631
C -1.7098084572 1.3939790986 -0.1994938359
C -0.7965439040 2.4412048964 0.0312842932
C 0.5414319540 2.1722645855 0.1670897229
C 1.0160753835 0.8429667871 0.0727958723
C 0.0867277923 -0.2233710061 -0.1607979039
C 0.5982552183 -1.5419290884 -0.2575352750
C 1.9427067286 -1.7978707071 -0.1287375715
C 2.8512782839 -0.7465612079 0.1048772726
C 2.3938745693 0.5441193697 0.2010234445
H -1.7994741540 -2.1634698188 1.2962905573
H -3.4223377131 -2.5051149465 0.6669768045
H -3.1020591933 -0.9993628749 1.5482715291
H -3.2347716425 -0.5652479721 -0.9068271500
H -1.9755985302 -1.7442815621 -1.2148452108
H -2.7658970592 1.6278753765 -0.3052421574
H -1.1591490975 3.4620436749 0.0982211172
H 1.2537365680 2.9725785401 0.3457696438
H -0.0813980255 -2.3670559622 -0.4377729250
H 2.3084514004 -2.8165620008 -0.2093221913
H 3.9105541879 -0.9598328525 0.2053679183
H 3.0874799295 1.3617155958 0.3769880893
