16
 xtb: 6.7.1 (edcfbbe)
C            1.11423525820092       -1.49914115336685        0.40575919012545
C            0.75137093647416       -0.01246831534590        0.39654887461595
C            1.58768726761069        0.75776134750047       -0.63839291691508
C           -0.72675873892849        0.24987107880851        0.12383839854672
O           -1.33355248147908        1.09912665414215        0.74486788288606
C           -1.40081265874434       -0.56236870303302       -0.96115017391362
H            0.49758988145143       -2.06007144656896        1.11511038345836
H            0.99367970171044       -1.95035770956935       -0.58463219529439
H            2.16091265823577       -1.62574791149911        0.69917815390576
H            0.94435358494653        0.41925872828458        1.38489663094035
H            1.42834653564388        0.36570791603041       -1.64863954900216
H            2.65261816845007        0.65722182639774       -0.40681718037647
H            1.33515122171972        1.82183674234430       -0.63579658597819
H           -0.77338372223271       -0.64646296132626       -1.85397763190482
H           -2.36020263892814       -0.10987943656742       -1.21331258523021
H           -1.57227295133230       -1.58193316409902       -0.59674459142610
