16
 xtb: 6.7.1 (edcfbbe)
C            2.47194227280724       -1.20678336816606        0.00115849740181
C            1.69985797572092        0.09178500684185        0.00013265629453
O            2.27193860356720        1.16707176195512       -0.00074872979241
C            0.20498420224660        0.03440817562563        0.00007349546540
C           -0.52011071282467        1.22933142453850        0.00058789928315
C           -1.90301807193882        1.17377452385489        0.00059985921303
C           -2.51920452661323       -0.07699888571887       -0.00001514263100
N           -1.84870955532913       -1.23270251731560       -0.00065068663043
C           -0.51517786842964       -1.16434822467107       -0.00056136632496
H            3.53855536254378       -0.98374522591778        0.00248171361447
H            2.22323510358004       -1.80625185079314       -0.88123979588195
H            2.22092720932225       -1.80653258098098        0.88268837455048
H            0.02137325213792        2.16963098316415        0.00101247682964
H           -2.50188374064966        2.07830857536363        0.00107926350790
H           -3.60521750266632       -0.15420560828102        0.00000510729889
H            0.00301876047318       -2.12134351646611       -0.00111063845384
