19
CONF1
C -3.1817697460 -0.0084832124 0.8418782971
C -2.4793599192 0.0124108855 -0.5172110811
C -0.9872533008 0.0072847091 -0.3407023231
C -0.2875834775 -1.1891799026 -0.2364484214
C 1.0773335038 -1.2041075476 -0.0323427929
C 1.7755514171 -0.0060474546 0.0749528850
C 1.0873648216 1.1958965746 -0.0255306095
C -0.2804807568 1.1960805107 -0.2297848796
O 3.1228731628 -0.0567603178 0.2746562924
H -2.8991085732 -0.8986903479 1.3992276692
H -4.2619243867 -0.0062796008 0.7137859421
H -2.8990643730 0.8639923841 1.4267105353
H -2.7843874635 0.9058701759 -1.0658761482
H -2.7861887527 -0.8627505895 -1.0935043633
H -0.8203397911 -2.1255430200 -0.3199067961
H 1.6225720264 -2.1312853729 0.0459117438
H 1.6249946203 2.1322149139 0.0556036524
H -0.8037038677 2.1385645105 -0.3072131813
H 3.4766522818 0.8389857007 0.3289580375
19
CONF2
C -3.3105437361 0.7151637644 0.3837267350
C -2.4752898948 -0.3945009242 -0.2445607926
C -0.9829301931 -0.2143871589 -0.1313895855
C -0.1559851531 -1.3220111165 -0.3012997496
C 1.2169197290 -1.2165308707 -0.2269292462
C 1.8035175020 0.0192280305 0.0260429069
C 0.9921432901 1.1313034428 0.1968196696
C -0.3849165655 1.0119982116 0.1160850369
O 3.1629326172 0.0909532683 0.0980430266
H -3.0203774683 0.8723689953 1.4202052413
H -4.3634691706 0.4426402768 0.3595624179
H -3.1945444698 1.6502794877 -0.1586897992
H -2.7340238780 -0.4772694761 -1.3056783072
H -2.7406451088 -1.3468680493 0.2223343265
H -0.6000598568 -2.2878845337 -0.4964321149
H 1.8533049664 -2.0771081419 -0.3587098573
H 1.4389542442 2.0976866586 0.3942082180
H -0.9866972823 1.8966301173 0.2517105325
H 3.4300702560 1.0001455935 0.2781241896
