20
CONF1
C -2.9872980320 1.2318201424 0.0004257515
C -1.7550577729 0.3766681927 -0.0000988187
C -1.8324832356 -1.0047233047 -0.0005826431
C -0.6839184121 -1.7801250641 -0.0003570146
C 0.5616498495 -1.1805442811 0.0001106165
C 0.6518849989 0.2217029707 0.0001165808
C -0.5002950958 0.9834327299 0.0002214352
O 1.9412614893 0.7131993392 -0.0001530837
C 2.1177962384 2.1061200707 -0.0003161462
O 1.6894516966 -1.9420757831 0.0005121482
H -3.8835215954 0.6175077491 -0.0039725149
H -3.0087619046 1.8699177117 0.8832677925
H -3.0048323276 1.8770731965 -0.8772495317
H -2.7972836737 -1.4891399350 -0.0011863682
H -0.7369679999 -2.8568272823 -0.0005804630
H -0.4461447680 2.0613362951 0.0004558652
H 3.1948352911 2.2678874439 -0.0017199684
H 1.6838349753 2.5646418571 0.8938895621
H 1.6814159966 2.5648901923 -0.8932900910
H 2.4480242086 -1.3429778397 0.0004088646
20
CONF2
C -2.9967328050 1.2199609825 -0.0092140007
C -1.7519291311 0.3832153873 0.0067892166
C -1.8313422718 -1.0002882735 0.0054629112
C -0.6856803193 -1.7769225228 0.0015626745
C 0.5617608105 -1.1784952396 -0.0013172754
C 0.6539167576 0.2222224057 -0.0001958225
C -0.4982256076 0.9870642058 0.0034804661
O 1.9439084423 0.7125232608 -0.0014578124
C 2.1223991367 2.1052166934 0.0030462604
O 1.6876777370 -1.9429887226 -0.0034307282
H -3.7467130866 0.8044065114 0.6604383447
H -2.7852065401 2.2428144844 0.2925044869
H -3.4214737079 1.2417144318 -1.0132455489
H -2.7984564056 -1.4800825851 0.0083067154
H -0.7395260210 -2.8536269044 0.0020609992
H -0.4382565541 2.0646040513 0.0043920075
H 1.6905897046 2.5613995373 0.8996203011
H 1.6857048582 2.5680480233 -0.8876941037
H 3.1997047998 2.2653005700 0.0007147145
H 2.4478738597 -1.3458771221 -0.0040710367
20
CONF3
C -2.9715334454 1.2534528487 0.0001543158
C -1.7469384891 0.3875763247 -0.0001048375
C -1.8362066894 -0.9911068533 -0.0001772083
C -0.6861436959 -1.7672006501 -0.0000994457
C 0.5649914547 -1.1815008648 0.0000305775
C 0.6716459539 0.2228112643 0.0000734173
C -0.4859895166 0.9814896519 0.0000333814
O 1.9399047251 0.7212164516 0.0001305526
C 2.1084874167 2.1147577745 -0.0001856240
O 1.7156044871 -1.9127301087 0.0000841756
H -3.8736561246 0.6475704927 -0.0040688549
H -2.9867331682 1.8919992885 0.8827122221
H -2.9826911109 1.8985384816 -0.8776530694
H -2.8020466663 -1.4733970993 -0.0003042571
H -0.7633468047 -2.8466968314 -0.0001689261
H -0.4281027170 2.0588914209 0.0001087517
H 3.1847750304 2.2802896407 -0.0004415884
H 1.6728998163 2.5752713621 0.8933627792
H 1.6725300028 2.5749052867 -0.8937396795
H 1.4947719812 -2.8518143682 0.0000662108
20
CONF4
C -2.9803463735 1.2428490934 0.0108186764
C -1.7441514657 0.3935854636 -0.0076154195
C -1.8351196526 -0.9869624494 -0.0065404950
C -0.6876637953 -1.7642255881 -0.0019953597
C 0.5652238638 -1.1798544962 0.0013947801
C 0.6734606701 0.2231262564 -0.0000758426
C -0.4840797085 0.9847186725 -0.0040607789
O 1.9422112933 0.7206750016 0.0013511960
C 2.1127298325 2.1139068600 -0.0032525733
O 1.7143594103 -1.9137348171 0.0045524296
H -3.3730726879 1.3108683011 1.0259188870
H -2.7678319512 2.2502315583 -0.3384213214
H -3.7547211283 0.8087701542 -0.6179231073
H -2.8029320055 -1.4652766366 -0.0095429775
H -0.7659681192 -2.8436727877 -0.0022745015
H -0.4206856464 2.0617633546 -0.0055018406
H 1.6730807019 2.5787267074 0.8860368927
H 1.6826396293 2.5712412236 -0.9011598295
H 3.1892727323 2.2778390162 0.0018611077
H 1.4910287204 -2.8521905797 0.0022749499
