15
 xtb: 6.7.1 (edcfbbe)
C            1.21112318087724        1.31395419711973       -0.02779332446875
C            0.48817788372993        0.02853791981510        0.40726767416200
C            0.95366568326499       -1.16544921156399       -0.42149017486427
C           -0.99879068599969        0.25227652457193        0.37388043711778
C           -1.89755841158918       -0.43891206605815       -0.32205795095574
H            2.29566459136213        1.20261236826914        0.07039311459428
H            0.90087204340759        2.17085561282645        0.57844228237193
H            0.98185141933856        1.54070002282208       -1.07445383275163
H            0.75878176764452       -0.15687670362221        1.45869113332002
H            0.72400246046697       -1.01619697284562       -1.48229323616554
H            2.03634023259599       -1.29295154311243       -0.32892891463897
H            0.47436678413779       -2.09348017507625       -0.09544617549384
H           -1.34441478055725        1.08722747940146        0.98437620062068
H           -2.95090646836566       -0.18161470335568       -0.28385952946495
H           -1.62145618956421       -1.27789680558169       -0.95198496214750
