15
 xtb: 6.7.1 (edcfbbe)
C           -2.20814512767478        0.09635705510186       -0.46393144473937
C           -1.04067111116994        0.42592063064650        0.47595098421264
C           -0.00789059386486       -0.65973988183226        0.48161007849858
C            1.28212291299540       -0.57059342877751        0.14820715916744
C            2.03068754344187        0.64518857853286       -0.30042632765537
H           -2.97385858495001        0.87745914814024       -0.43139323843182
H           -2.68013368975433       -0.85065129968262       -0.18242363837730
H           -1.85801649700064       -0.00016466333277       -1.49604328070005
H           -0.60119983179606        1.38772903404718        0.19614626775828
H           -1.43164740349007        0.54878403050303        1.49560258038968
H           -0.38038725942007       -1.63928514140916        0.78363539039624
H            1.87752088765315       -1.48116464372594        0.20867176965465
H            1.39435305174409        1.52777261758832       -0.39206285710800
H            2.50666397114317        0.46757605367628       -1.27257137543816
H            2.83815676217140        0.88329334480528        0.40349522491212
