19
CONF2
C -3.7921298917 0.8946529120 -0.0424978867
O -2.3453906242 0.9437862359 -0.0432220455
C -1.7201002929 -0.2495613308 0.0358693587
O -2.3293090990 -1.3096960936 0.1093363264
C -0.2532267168 -0.1292038764 0.0209336655
C 0.3999428675 1.1090760770 -0.0708887897
C 1.7819097837 1.1768573559 -0.0888641003
C 2.5321205404 -0.0003966887 -0.0155790936
C 1.8964875599 -1.2420356287 0.0797978998
C 0.5139981733 -1.2990005782 0.0971369454
O 3.8907186766 0.1193441557 -0.0415066749
H -4.1156551387 1.9304210971 -0.1409471324
H -4.1566321072 0.4700310495 0.8964102663
H -4.1525011638 0.3014958707 -0.8866715335
H -0.1757804076 2.0250371541 -0.1291132828
H 2.2929965130 2.1310434102 -0.1604710588
H 2.4900787368 -2.1497800223 0.1367907788
H 0.0169337077 -2.2600311893 0.1698059574
H 4.2946217294 -0.7593583082 0.0118022410
