15
CONF1
C 0.7549670619 -1.2579327604 -0.4744025415
C 0.0051673946 0.0000411783 -0.0341711237
C -1.4204917918 -0.0013720617 -0.5709940465
C 0.7522259324 1.2599084972 -0.4736367292
O -0.1397560066 -0.0005525998 1.4040758766
H 1.7723902428 -1.2648778440 -0.0664862906
H 0.2335840538 -2.1504965722 -0.1176369703
H 0.8322718260 -1.3095016786 -1.5654232094
H -1.9543291893 -0.8884867874 -0.2194062230
H -1.4201466441 -0.0013834758 -1.6646714466
H -1.9561513105 0.8846524253 -0.2194228446
H 1.7697856625 1.2686049663 -0.0660857575
H 0.8290280402 1.3125473269 -1.5646420393
H 0.2291210671 2.1510934566 -0.1159431422
H 0.7455183251 0.0006129264 1.7864405686
