 xtb: 6.7.1 (edcfbbe)
          04152520033D

 13 13  0     0  0            999 V2000
    1.3344    1.3274    0.0001 C   0  0  0  0  0  0  0  0  0  0  0  0
   -0.0291    1.1029    0.0000 C   0  0  0  0  0  0  0  0  0  0  0  0
   -0.4950   -0.2142   -0.0000 C   0  0  0  0  0  0  0  0  0  0  0  0
    0.4517   -1.2405   -0.0001 C   0  0  0  0  0  0  0  0  0  0  0  0
    1.7522   -1.0264   -0.0000 N   0  0  0  0  0  0  0  0  0  0  0  0
    2.1812    0.2255    0.0001 C   0  0  0  0  0  0  0  0  0  0  0  0
   -1.9355   -0.5025   -0.0001 C   0  0  0  0  0  0  0  0  0  0  0  0
   -2.8057    0.3285   -0.0006 O   0  0  0  0  0  0  0  0  0  0  0  0
    1.7359    2.3286    0.0001 H   0  0  0  0  0  0  0  0  0  0  0  0
   -0.7437    1.9132    0.0000 H   0  0  0  0  0  0  0  0  0  0  0  0
    0.1440   -2.2789   -0.0001 H   0  0  0  0  0  0  0  0  0  0  0  0
    3.2565    0.3466    0.0001 H   0  0  0  0  0  0  0  0  0  0  0  0
   -2.1718   -1.5850    0.0004 H   0  0  0  0  0  0  0  0  0  0  0  0
  1  2  4  0  0  0  0
  2  3  4  0  0  0  0
  3  4  4  0  0  0  0
  4  5  4  0  0  0  0
  1  6  4  0  0  0  0
  5  6  4  0  0  0  0
  3  7  1  0  0  0  0
  7  8  2  0  0  0  0
  1  9  1  0  0  0  0
  2 10  1  0  0  0  0
  4 11  1  0  0  0  0
  6 12  1  0  0  0  0
  7 13  1  0  0  0  0
M  END
