23
 xtb: 6.7.1 (edcfbbe)
C            4.56655391369953       -0.23012330832779        0.04478031680617
C            4.01367092580560        1.04617779001787        0.08501883084385
C            2.63876248138196        1.22676912822595        0.07871056127583
C            1.78057282477565        0.11822843299605        0.03229132680181
C            2.33121021759213       -1.16867522553597       -0.00676497660346
C            3.71505844056871       -1.32449343341399       -0.00066494365890
N            0.35282044364288        0.35999218661923        0.02455506899380
C           -0.62748734317984       -0.69418890240442       -0.04180646389013
O           -0.33264528578607       -1.87759426604102       -0.08309845243077
C           -1.98722480069334       -0.20932199885525       -0.04989886074881
C           -2.31973864913666        1.12074536282049       -0.00046135758797
C           -1.21615490031183        2.02242794345531        0.06876837094564
N            0.02642145565105        1.65411627553267        0.08157486354144
N           -3.59563978972423        1.60285749512456       -0.06343462202014
Cl          -3.23471360936787       -1.41355135411236       -0.12722968130660
H            5.64290206370961       -0.36577692728555        0.04866205902394
H            4.65655616204512        1.91995766116200        0.12119435664490
H            2.22877837022628        2.22530005924985        0.10929945947043
H            1.69386456432976       -2.03542885414778       -0.04214599079700
H            4.12065088488112       -2.33061877582171       -0.03249862382601
H           -1.38571878692010        3.09629398899164        0.11114063302817
H           -3.75500083438167        2.54140476865704        0.26245455299921
H           -4.34360910218155        0.94871451179744        0.10536204083103
