 xtb: 6.7.1 (edcfbbe)
          04152519343D

 24 24  0     0  0            999 V2000
   -3.6322   -0.2366    0.0037 C   0  0  0  0  0  0  0  0  0  0  0  0
   -2.1426   -0.0691   -0.0040 C   0  0  0  0  0  0  0  0  0  0  0  0
   -1.5561    1.1876    0.0011 C   0  0  0  0  0  0  0  0  0  0  0  0
   -0.1792    1.3270    0.0035 C   0  0  0  0  0  0  0  0  0  0  0  0
    0.6536    0.2172    0.0011 C   0  0  0  0  0  0  0  0  0  0  0  0
    0.0643   -1.0419   -0.0040 C   0  0  0  0  0  0  0  0  0  0  0  0
   -1.3096   -1.1820   -0.0064 C   0  0  0  0  0  0  0  0  0  0  0  0
    2.1537    0.3818    0.0027 C   0  0  0  0  0  0  0  0  0  0  0  0
    2.7694   -0.2256   -1.2596 C   0  0  0  0  0  0  0  0  0  0  0  0
    2.7686   -0.2394    1.2587 C   0  0  0  0  0  0  0  0  0  0  0  0
   -4.1323    0.7175   -0.1427 H   0  0  0  0  0  0  0  0  0  0  0  0
   -3.9447   -0.9206   -0.7839 H   0  0  0  0  0  0  0  0  0  0  0  0
   -3.9594   -0.6544    0.9559 H   0  0  0  0  0  0  0  0  0  0  0  0
   -2.1814    2.0696    0.0025 H   0  0  0  0  0  0  0  0  0  0  0  0
    0.2537    2.3180    0.0067 H   0  0  0  0  0  0  0  0  0  0  0  0
    0.6830   -1.9273   -0.0068 H   0  0  0  0  0  0  0  0  0  0  0  0
   -1.7469   -2.1709   -0.0107 H   0  0  0  0  0  0  0  0  0  0  0  0
    2.3784    1.4545    0.0086 H   0  0  0  0  0  0  0  0  0  0  0  0
    2.5993   -1.2988   -1.2945 H   0  0  0  0  0  0  0  0  0  0  0  0
    3.8426   -0.0476   -1.2790 H   0  0  0  0  0  0  0  0  0  0  0  0
    2.3277    0.2203   -2.1482 H   0  0  0  0  0  0  0  0  0  0  0  0
    2.3261    0.1966    2.1519 H   0  0  0  0  0  0  0  0  0  0  0  0
    3.8417   -0.0611    1.2809 H   0  0  0  0  0  0  0  0  0  0  0  0
    2.5989   -1.3129    1.2817 H   0  0  0  0  0  0  0  0  0  0  0  0
  1  2  1  0  0  0  0
  2  3  4  0  0  0  0
  3  4  4  0  0  0  0
  4  5  4  0  0  0  0
  5  6  4  0  0  0  0
  2  7  4  0  0  0  0
  6  7  4  0  0  0  0
  5  8  1  0  0  0  0
  8  9  1  0  0  0  0
  8 10  1  0  0  0  0
  1 11  1  0  0  0  0
  1 12  1  0  0  0  0
  1 13  1  0  0  0  0
  3 14  1  0  0  0  0
  4 15  1  0  0  0  0
  6 16  1  0  0  0  0
  7 17  1  0  0  0  0
  8 18  1  0  0  0  0
  9 19  1  0  0  0  0
  9 20  1  0  0  0  0
  9 21  1  0  0  0  0
 10 22  1  0  0  0  0
 10 23  1  0  0  0  0
 10 24  1  0  0  0  0
M  END
