15
 xtb: 6.7.1 (edcfbbe)
C           -1.00500942704209       -1.81734443780064        0.00007352192154
C            0.36891652203603       -1.61192598128134       -0.00004240198780
C            0.86790064869930       -0.30600594904813       -0.00010623068592
C            0.00455247270057        0.78970676997007       -0.00006958991282
C           -1.36743692326507        0.57342304706359        0.00001882929608
C           -1.87385276287431       -0.73165155512651        0.00010067593651
O           -2.17828964238982        1.67102877512049        0.00001822120788
C            2.33004654415010       -0.09291347953458       -0.00024576579569
O            2.87019260118341        0.99230930159183       -0.00016307954231
H           -1.40943002770733       -2.82409826189821        0.00014054388345
H            1.05556665552536       -2.45316290473889       -0.00007741573161
H            0.40742132305261        1.79653137170852       -0.00012780570730
H           -2.94888650301759       -0.89526158086539        0.00018334819260
H           -3.10016155419763        1.38944623252731        0.00001135668257
H            2.93063633244418       -1.03186684656234       -0.00040811342023
