21
 xtb: 6.7.1 (edcfbbe)
C           -2.65510384441898       -0.68494654719264       -0.75603773271325
C           -1.88021705277616       -0.45600995394100        0.54985815294182
C           -0.39935855688934       -0.30283721058452        0.30644220907703
C            0.40613917677964       -1.44289113178751        0.26427138674544
C            1.76626697689229       -1.36361585883235       -0.01175316103270
C            2.34321124879623       -0.12155588614641       -0.24901062794616
C            1.55288157667286        1.02159355222807       -0.20486573444105
C            0.18445034171397        0.95458055214953        0.06807688889453
C           -0.62962550858464        2.22048932241631        0.11964287733959
H           -2.30285027517449       -1.59326744032524       -1.25423970805107
H           -2.51269144604417        0.14761767750787       -1.45178857241241
H           -3.72756760200241       -0.79099310721291       -0.56458529285757
H           -2.04760112223297       -1.30798752178888        1.21848862239863
H           -2.27804469621149        0.42601525775817        1.06174493148114
H           -0.04789956132857       -2.41259474224928        0.45413752553045
H            2.37038099347361       -2.26493422103906       -0.03736905845095
H            3.40376864140307       -0.04040796934154       -0.46478738369963
H            2.00603895210692        1.99270785031799       -0.38534792763129
H           -0.01886582439255        3.08302952934740       -0.15702911629898
H           -1.48687315307621        2.18447526410526       -0.56062140068401
H           -1.02459103722583        2.40192357469224        1.12591773669322
