 xtb: 6.7.1 (edcfbbe)
          04162511253D

 24 24  0     0  0            999 V2000
   -2.0352   -0.5932   -0.6660 C   0  0  0  0  0  0  0  0  0  0  0  0
   -1.2206   -0.0703    0.5446 C   0  0  0  0  0  0  0  0  0  0  0  0
   -1.8800   -0.0148    1.4202 H   0  0  0  0  0  0  0  0  0  0  0  0
   -0.6384    1.3353    0.3137 C   0  0  0  0  0  0  0  0  0  0  0  0
   -1.3843    1.9442   -0.2078 H   0  0  0  0  0  0  0  0  0  0  0  0
    0.6572    1.3008   -0.5375 C   0  0  0  0  0  0  0  0  0  0  0  0
    1.0939    2.3092   -0.4825 H   0  0  0  0  0  0  0  0  0  0  0  0
    1.6409    0.2823    0.0666 C   0  0  0  0  0  0  0  0  0  0  0  0
    2.4836    0.1450   -0.6270 H   0  0  0  0  0  0  0  0  0  0  0  0
    0.9349   -1.0791    0.2024 C   0  0  0  0  0  0  0  0  0  0  0  0
    1.5809   -1.7594    0.7809 H   0  0  0  0  0  0  0  0  0  0  0  0
   -0.2330   -1.0115    0.9571 O   0  0  0  0  0  0  0  0  0  0  0  0
    0.7248   -1.5806   -1.0907 O   0  0  0  0  0  0  0  0  0  0  0  0
    2.0909    0.6582    1.3474 O   0  0  0  0  0  0  0  0  0  0  0  0
    0.4228    1.0361   -1.8927 O   0  0  0  0  0  0  0  0  0  0  0  0
   -0.3955    1.9728    1.5401 O   0  0  0  0  0  0  0  0  0  0  0  0
   -2.0020   -2.0015   -0.7406 O   0  0  0  0  0  0  0  0  0  0  0  0
   -1.6241   -0.2315   -1.6095 H   0  0  0  0  0  0  0  0  0  0  0  0
   -3.0676   -0.2324   -0.5781 H   0  0  0  0  0  0  0  0  0  0  0  0
   -0.0959   -2.1095   -1.0801 H   0  0  0  0  0  0  0  0  0  0  0  0
    2.5999    1.4741    1.2717 H   0  0  0  0  0  0  0  0  0  0  0  0
    0.4960    0.0747   -2.0255 H   0  0  0  0  0  0  0  0  0  0  0  0
    0.2786    1.4554    2.0092 H   0  0  0  0  0  0  0  0  0  0  0  0
   -2.2479   -2.3599    0.1212 H   0  0  0  0  0  0  0  0  0  0  0  0
  1  2  1  0  0  0  0
  2  3  1  0  0  0  0
  2  4  1  0  0  0  0
  4  5  1  0  0  0  0
  4  6  1  0  0  0  0
  6  7  1  0  0  0  0
  6  8  1  0  0  0  0
  8  9  1  0  0  0  0
  8 10  1  0  0  0  0
 10 11  1  0  0  0  0
  2 12  1  0  0  0  0
 10 12  1  0  0  0  0
 10 13  1  0  0  0  0
  8 14  1  0  0  0  0
  6 15  1  0  0  0  0
  4 16  1  0  0  0  0
  1 17  1  0  0  0  0
  1 18  1  0  0  0  0
  1 19  1  0  0  0  0
 13 20  1  0  0  0  0
 14 21  1  0  0  0  0
 15 22  1  0  0  0  0
 16 23  1  0  0  0  0
 17 24  1  0  0  0  0
M  END
