 xtb: 6.7.1 (edcfbbe)
          04152519313D

 26 25  0     0  0            999 V2000
   -1.9676   -1.0384   -0.8323 C   0  0  0  0  0  0  0  0  0  0  0  0
   -1.6005   -0.2220    0.4052 C   0  0  0  0  0  0  0  0  0  0  0  0
   -2.0482    1.2281    0.2286 C   0  0  0  0  0  0  0  0  0  0  0  0
   -0.1434   -0.3908    0.8810 C   0  0  0  0  0  0  0  0  0  0  0  0
    1.0907    0.0036    0.0401 C   0  0  0  0  0  0  0  0  0  0  0  0
    1.2287   -0.8261   -1.2381 C   0  0  0  0  0  0  0  0  0  0  0  0
    1.1210    1.4910   -0.3157 C   0  0  0  0  0  0  0  0  0  0  0  0
    2.3127   -0.2940    0.9245 C   0  0  0  0  0  0  0  0  0  0  0  0
   -1.5896   -0.5763   -1.7394 H   0  0  0  0  0  0  0  0  0  0  0  0
   -1.5721   -2.0486   -0.7632 H   0  0  0  0  0  0  0  0  0  0  0  0
   -3.0508   -1.1020   -0.9212 H   0  0  0  0  0  0  0  0  0  0  0  0
   -2.1911   -0.6310    1.2373 H   0  0  0  0  0  0  0  0  0  0  0  0
   -1.7179    1.8414    1.0633 H   0  0  0  0  0  0  0  0  0  0  0  0
   -1.6624    1.6561   -0.6913 H   0  0  0  0  0  0  0  0  0  0  0  0
   -3.1351    1.2723    0.1833 H   0  0  0  0  0  0  0  0  0  0  0  0
   -0.0675    0.1603    1.8234 H   0  0  0  0  0  0  0  0  0  0  0  0
   -0.0240   -1.4505    1.1272 H   0  0  0  0  0  0  0  0  0  0  0  0
    2.2130   -0.6675   -1.6753 H   0  0  0  0  0  0  0  0  0  0  0  0
    0.4888   -0.5436   -1.9794 H   0  0  0  0  0  0  0  0  0  0  0  0
    1.1192   -1.8867   -1.0247 H   0  0  0  0  0  0  0  0  0  0  0  0
    2.1044    1.7581   -0.6990 H   0  0  0  0  0  0  0  0  0  0  0  0
    0.9199    2.1030    0.5600 H   0  0  0  0  0  0  0  0  0  0  0  0
    0.3919    1.7305   -1.0830 H   0  0  0  0  0  0  0  0  0  0  0  0
    2.2805    0.2939    1.8394 H   0  0  0  0  0  0  0  0  0  0  0  0
    3.2331   -0.0513    0.3979 H   0  0  0  0  0  0  0  0  0  0  0  0
    2.3452   -1.3470    1.1962 H   0  0  0  0  0  0  0  0  0  0  0  0
  1  2  1  0  0  0  0
  2  3  1  0  0  0  0
  2  4  1  0  0  0  0
  4  5  1  0  0  0  0
  5  6  1  0  0  0  0
  5  7  1  0  0  0  0
  5  8  1  0  0  0  0
  1  9  1  0  0  0  0
  1 10  1  0  0  0  0
  1 11  1  0  0  0  0
  2 12  1  0  0  0  0
  3 13  1  0  0  0  0
  3 14  1  0  0  0  0
  3 15  1  0  0  0  0
  4 16  1  0  0  0  0
  4 17  1  0  0  0  0
  6 18  1  0  0  0  0
  6 19  1  0  0  0  0
  6 20  1  0  0  0  0
  7 21  1  0  0  0  0
  7 22  1  0  0  0  0
  7 23  1  0  0  0  0
  8 24  1  0  0  0  0
  8 25  1  0  0  0  0
  8 26  1  0  0  0  0
M  END
