 xtb: 6.7.1 (edcfbbe)
          04162511403D

 26 27  0     0  0            999 V2000
   -4.7665   -0.8521    0.1407 C   0  0  0  0  0  0  0  0  0  0  0  0
   -3.3992   -0.9124   -0.3081 N   0  0  0  0  0  0  0  0  0  0  0  0
   -2.4638   -0.0256    0.0951 C   0  0  0  0  0  0  0  0  0  0  0  0
   -2.6568    0.9019    0.8356 O   0  0  0  0  0  0  0  0  0  0  0  0
   -1.2682   -0.3687   -0.4601 O   0  0  0  0  0  0  0  0  0  0  0  0
   -0.1508    0.4334   -0.2762 C   0  0  0  0  0  0  0  0  0  0  0  0
   -0.2063    1.8013   -0.3111 C   0  0  0  0  0  0  0  0  0  0  0  0
    0.9689    2.5529   -0.1652 C   0  0  0  0  0  0  0  0  0  0  0  0
    2.1768    1.9382   -0.0005 C   0  0  0  0  0  0  0  0  0  0  0  0
    2.2663    0.5307    0.0295 C   0  0  0  0  0  0  0  0  0  0  0  0
    1.0854   -0.2443   -0.1070 C   0  0  0  0  0  0  0  0  0  0  0  0
    1.1780   -1.6502   -0.0684 C   0  0  0  0  0  0  0  0  0  0  0  0
    2.3878   -2.2647    0.0967 C   0  0  0  0  0  0  0  0  0  0  0  0
    3.5579   -1.5021    0.2277 C   0  0  0  0  0  0  0  0  0  0  0  0
    3.4976   -0.1371    0.1954 C   0  0  0  0  0  0  0  0  0  0  0  0
   -4.8533    0.0069    0.8038 H   0  0  0  0  0  0  0  0  0  0  0  0
   -5.0367   -1.7582    0.6864 H   0  0  0  0  0  0  0  0  0  0  0  0
   -5.4454   -0.7266   -0.7050 H   0  0  0  0  0  0  0  0  0  0  0  0
   -3.1162   -1.6553   -0.9262 H   0  0  0  0  0  0  0  0  0  0  0  0
   -1.1512    2.3040   -0.4376 H   0  0  0  0  0  0  0  0  0  0  0  0
    0.9014    3.6301   -0.1898 H   0  0  0  0  0  0  0  0  0  0  0  0
    3.0812    2.5187    0.1094 H   0  0  0  0  0  0  0  0  0  0  0  0
    0.2733   -2.2301   -0.1707 H   0  0  0  0  0  0  0  0  0  0  0  0
    2.4507   -3.3426    0.1275 H   0  0  0  0  0  0  0  0  0  0  0  0
    4.5061   -2.0035    0.3558 H   0  0  0  0  0  0  0  0  0  0  0  0
    4.3957    0.4552    0.2972 H   0  0  0  0  0  0  0  0  0  0  0  0
  1  2  1  0  0  0  0
  2  3  4  0  0  0  0
  3  4  2  0  0  0  0
  3  5  1  0  0  0  0
  5  6  1  0  0  0  0
  6  7  2  0  0  0  0
  7  8  4  0  0  0  0
  8  9  2  0  0  0  0
  9 10  4  0  0  0  0
  6 11  4  0  0  0  0
 10 11  4  0  0  0  0
 11 12  4  0  0  0  0
 12 13  2  0  0  0  0
 13 14  4  0  0  0  0
 10 15  4  0  0  0  0
 14 15  2  0  0  0  0
  1 16  1  0  0  0  0
  1 17  1  0  0  0  0
  1 18  1  0  0  0  0
  2 19  1  0  0  0  0
  7 20  1  0  0  0  0
  8 21  1  0  0  0  0
  9 22  1  0  0  0  0
 12 23  1  0  0  0  0
 13 24  1  0  0  0  0
 14 25  1  0  0  0  0
 15 26  1  0  0  0  0
M  END
