 xtb: 6.7.1 (edcfbbe)
          04162510273D

 15 14  0     0  0            999 V2000
   -2.1996    0.0943   -0.3686 C   0  0  0  0  0  0  0  0  0  0  0  0
   -1.0024    0.4810    0.4999 C   0  0  0  0  0  0  0  0  0  0  0  0
    0.0042   -0.6265    0.5415 C   0  0  0  0  0  0  0  0  0  0  0  0
    1.2655   -0.5944    0.1401 C   0  0  0  0  0  0  0  0  0  0  0  0
    2.0119    0.5609   -0.4429 C   0  0  0  0  0  0  0  0  0  0  0  0
   -2.9394    0.8918   -0.3762 H   0  0  0  0  0  0  0  0  0  0  0  0
   -2.6708   -0.8098    0.0113 H   0  0  0  0  0  0  0  0  0  0  0  0
   -1.8789   -0.0908   -1.3915 H   0  0  0  0  0  0  0  0  0  0  0  0
   -0.5603    1.4009    0.1184 H   0  0  0  0  0  0  0  0  0  0  0  0
   -1.3515    0.6755    1.5187 H   0  0  0  0  0  0  0  0  0  0  0  0
   -0.3861   -1.5549    0.9410 H   0  0  0  0  0  0  0  0  0  0  0  0
    1.8601   -1.4952    0.2367 H   0  0  0  0  0  0  0  0  0  0  0  0
    2.8474    0.8261    0.2054 H   0  0  0  0  0  0  0  0  0  0  0  0
    1.3837    1.4364   -0.5729 H   0  0  0  0  0  0  0  0  0  0  0  0
    2.4246    0.2815   -1.4122 H   0  0  0  0  0  0  0  0  0  0  0  0
  1  2  1  0  0  0  0
  2  3  1  0  0  0  0
  3  4  2  0  0  0  0
  4  5  1  0  0  0  0
  1  6  1  0  0  0  0
  1  7  1  0  0  0  0
  1  8  1  0  0  0  0
  2  9  1  0  0  0  0
  2 10  1  0  0  0  0
  3 11  1  0  0  0  0
  4 12  1  0  0  0  0
  5 13  1  0  0  0  0
  5 14  1  0  0  0  0
  5 15  1  0  0  0  0
M  END
