16
CONF1
C 2.4719422717 -1.2067833676 0.0011584974
C 1.6998579750 0.0917850068 0.0001326563
O 2.2719386026 1.1670717614 -0.0007487298
C 0.2049842022 0.0344081756 0.0000734955
C -0.5201107126 1.2293314240 0.0005878993
C -1.9030180711 1.1737745233 0.0005998592
C -2.5192045255 -0.0769988857 -0.0000151426
N -1.8487095545 -1.2327025168 -0.0006506866
C -0.5151778682 -1.1643482242 -0.0005613663
H 3.5385553610 -0.9837452255 0.0024817136
H 2.2232351026 -1.8062518500 -0.8812397955
H 2.2209272083 -1.8065325802 0.8826883742
H 0.0213732521 2.1696309822 0.0010124768
H -2.5018837395 2.0783085744 0.0010792635
H -3.6052175011 -0.1542056082 0.0000051073
H 0.0030187605 -2.1213435155 -0.0011106385
16
CONF3
C 2.4888502444 -1.1554448928 0.2087796316
C 1.7035010834 0.1335932145 0.1432462940
O 2.2648994830 1.2138345621 0.1008881814
C 0.2094986976 0.0607791958 0.1328732416
C -0.5278148716 1.2449858667 0.0449091773
C -1.9099861984 1.1742013971 0.0322825002
C -2.5132917830 -0.0805395272 0.1102770146
N -1.8309943730 -1.2259555129 0.1979960130
C -0.4983344936 -1.1430806488 0.2075799872
H 2.2349947734 -1.8076937379 -0.6333261389
H 2.2549753657 -1.7043707419 1.1272830451
H 3.5531899845 -0.9226994691 0.1847044745
H 0.0039642203 2.1891551921 -0.0126262325
H -2.5183130622 2.0698067652 -0.0364946037
H -3.5984820108 -0.1693893706 0.1024422062
H 0.0298508721 -2.0919396548 0.2793329915
16
CONF2
C 2.4924381413 1.1784461947 -0.2901885776
C 1.6995552097 -0.0840571524 -0.0354064777
O 2.2556451298 -1.1500249322 0.1583721555
C 0.2068898093 0.0077070385 -0.0258503908
C -0.4917819712 1.2005190694 -0.2198436679
C -1.8793891989 1.1798092606 -0.1894780803
C -2.5204441258 -0.0347165625 0.0331219147
N -1.8729884911 -1.1915764916 0.2198795047
C -0.5418066030 -1.1579636425 0.1893675133
H 2.2778460942 1.9306433776 0.4769406423
H 2.2279202528 1.6147621806 -1.2595450872
H 3.5549433775 0.9372531180 -0.2756909038
H 0.0337217268 2.1342082055 -0.3911482496
H -2.4567708299 2.0863960111 -0.3351946432
H -3.6076931900 -0.0840881135 0.0628401912
H -0.0158041529 -2.0976190456 0.3411784834
