10
 xtb: 6.7.1 (edcfbbe)
C           -1.73665461926063        0.66054512658526        0.50633322772637
C           -0.85109781795936        0.20155316857590       -0.63854010561706
N            0.51395248953099       -0.19936592501252       -0.10469619937803
O            0.85669143573855       -1.36343591110276       -0.24262878542281
O            1.16750448302276        0.67892985182343        0.43733189032922
H           -1.89411903786675       -0.14672571919188        1.22696886312777
H           -1.29176496694431        1.51583913959335        1.01880653362827
H           -2.71012947822066        0.95830444692636        0.10730205324430
H           -0.65934733412597        1.01131736085145       -1.34818535878129
H           -1.24337126946270       -0.67445368561824       -1.15583945946353
