22
 xtb: 6.7.1 (edcfbbe)
C           -3.54572098415330        0.00011567863664        0.00014342756526
C           -2.85960726513998       -0.85276040806823       -0.85527154434234
C           -1.47094260648568       -0.84177185311007       -0.84340330572789
C           -0.73960435806860        0.00006015635655        0.00007003313015
C           -1.47086379915563        0.84192343952098        0.84357966031575
C           -2.85952784131268        0.85296657498665        0.85552097570594
Cl          -0.60924851177159        1.91652352574891        1.91972673996621
C            0.73960917820408        0.00001766233625        0.00002965500935
C            1.47090441492541       -0.84184530687329        0.84350901455773
C            2.85956801144527       -0.85292696691683        0.85535465397464
C            3.54572491440100       -0.00011931456294       -0.00009446142157
C            2.85957560154556        0.85275936560434       -0.85547796653649
C            1.47091077121851        0.84181464694690       -0.84350832259413
Cl           0.60935160295521        1.91644533509464       -1.91966964326312
Cl           0.60933423547035       -1.91639438915373        1.91974453981501
Cl          -0.60942957949065       -1.91640340950864       -1.91960016868366
H           -4.63050908463733        0.00013669463191        0.00017455102318
H           -3.38832611403529       -1.51984515015899       -1.52499216551746
H           -3.38818590270578        1.52007515983546        1.52526666527590
H            3.38825520066036       -1.52003291476017        1.52507919217697
H            4.63051295224125       -0.00017678004198       -0.00014577540472
H            3.38826638845685        1.51981174551542       -1.52525289089725
