 xtb: 6.7.1 (edcfbbe)
          04152520033D

 14 13  0     0  0            999 V2000
    1.9770    0.0055   -0.6513 C   0  0  0  0  0  0  0  0  0  0  0  0
    1.2680   -0.3466    0.6512 C   0  0  0  0  0  0  0  0  0  0  0  0
   -0.2401   -0.5325    0.5076 C   0  0  0  0  0  0  0  0  0  0  0  0
   -0.6690   -0.7646    1.4870 H   0  0  0  0  0  0  0  0  0  0  0  0
   -0.6443   -1.5930   -0.5006 C   0  0  0  0  0  0  0  0  0  0  0  0
   -0.9900    1.0317    0.0320 Cl  0  0  0  0  0  0  0  0  0  0  0  0
    1.5133    0.8755   -1.1092 H   0  0  0  0  0  0  0  0  0  0  0  0
    1.9410   -0.8221   -1.3546 H   0  0  0  0  0  0  0  0  0  0  0  0
    3.0204    0.2369   -0.4525 H   0  0  0  0  0  0  0  0  0  0  0  0
    1.4491    0.4439    1.3826 H   0  0  0  0  0  0  0  0  0  0  0  0
    1.6799   -1.2750    1.0553 H   0  0  0  0  0  0  0  0  0  0  0  0
   -0.3404   -1.3083   -1.5039 H   0  0  0  0  0  0  0  0  0  0  0  0
   -0.1726   -2.5390   -0.2418 H   0  0  0  0  0  0  0  0  0  0  0  0
   -1.7232   -1.7281   -0.4949 H   0  0  0  0  0  0  0  0  0  0  0  0
  1  2  1  0  0  0  0
  2  3  1  0  0  0  0
  3  4  1  0  0  0  0
  3  5  1  0  0  0  0
  3  6  1  0  0  0  0
  1  7  1  0  0  0  0
  1  8  1  0  0  0  0
  1  9  1  0  0  0  0
  2 10  1  0  0  0  0
  2 11  1  0  0  0  0
  5 12  1  0  0  0  0
  5 13  1  0  0  0  0
  5 14  1  0  0  0  0
M  END
