 xtb: 6.7.1 (edcfbbe)
          04152519383D

 17 17  0     0  0            999 V2000
   -3.1762   -0.3263   -0.0002 C   0  0  0  0  0  0  0  0  0  0  0  0
   -2.0885    0.5653   -0.0000 O   0  0  0  0  0  0  0  0  0  0  0  0
   -0.8264    0.0501   -0.0000 C   0  0  0  0  0  0  0  0  0  0  0  0
   -0.5149   -1.3038   -0.0001 C   0  0  0  0  0  0  0  0  0  0  0  0
    0.8150   -1.6964   -0.0001 C   0  0  0  0  0  0  0  0  0  0  0  0
    1.8371   -0.7716   -0.0000 C   0  0  0  0  0  0  0  0  0  0  0  0
    1.5258    0.5864    0.0000 C   0  0  0  0  0  0  0  0  0  0  0  0
    0.2020    0.9912    0.0000 C   0  0  0  0  0  0  0  0  0  0  0  0
    2.5480    1.4831    0.0001 O   0  0  0  0  0  0  0  0  0  0  0  0
   -3.1777   -0.9590   -0.8937 H   0  0  0  0  0  0  0  0  0  0  0  0
   -4.0687    0.2977   -0.0003 H   0  0  0  0  0  0  0  0  0  0  0  0
   -3.1779   -0.9591    0.8932 H   0  0  0  0  0  0  0  0  0  0  0  0
   -1.2874   -2.0553   -0.0001 H   0  0  0  0  0  0  0  0  0  0  0  0
    1.0511   -2.7500   -0.0001 H   0  0  0  0  0  0  0  0  0  0  0  0
    2.8719   -1.0713   -0.0000 H   0  0  0  0  0  0  0  0  0  0  0  0
   -0.0603    2.0396    0.0001 H   0  0  0  0  0  0  0  0  0  0  0  0
    2.1928    2.3801    0.0001 H   0  0  0  0  0  0  0  0  0  0  0  0
  1  2  1  0  0  0  0
  2  3  1  0  0  0  0
  3  4  4  0  0  0  0
  4  5  4  0  0  0  0
  5  6  4  0  0  0  0
  6  7  4  0  0  0  0
  3  8  4  0  0  0  0
  7  8  4  0  0  0  0
  7  9  1  0  0  0  0
  1 10  1  0  0  0  0
  1 11  1  0  0  0  0
  1 12  1  0  0  0  0
  4 13  1  0  0  0  0
  5 14  1  0  0  0  0
  6 15  1  0  0  0  0
  8 16  1  0  0  0  0
  9 17  1  0  0  0  0
M  END
