15
CONF6
C 2.0853956927 0.0550223504 -0.0800776990
C 0.7599299101 0.7235141439 0.2786183561
C -0.4571520081 0.0333116678 -0.3389650990
H -0.3500021537 0.0470882532 -1.4383507933
C -1.7558551573 0.7199227609 0.0427986855
O -0.5778871106 -1.3269284818 0.1084586925
H 2.9321754996 0.6132183272 0.3293222970
H 2.2196796503 -0.0023922506 -1.1665610130
H 2.1482840528 -0.9598292187 0.3278838291
H 0.7709937925 1.7664201063 -0.0633069893
H 0.6303435276 0.7426383871 1.3680688759
H -2.6071989547 0.2046822770 -0.4090416620
H -1.8815225890 0.7038455755 1.1301163884
H -1.7545758139 1.7604415732 -0.2942862344
H 0.1877967511 -1.8161273171 -0.2105445039
