17
 xtb: 6.7.1 (edcfbbe)
C           -2.57086038190091        0.97408258890774        0.01086953359419
C           -1.24275032613150        0.27398165871531       -0.01065852843372
C           -1.15307022363613       -1.11758271937187       -0.00875931559086
C            0.10386039460575       -1.71045538957479        0.00194306142784
N            1.25108763195483       -1.02781818787863        0.00893406000165
C            1.17596307478251        0.31207756571203        0.00466666947497
C           -0.04539812842830        0.98807923774101       -0.00567181444837
C            2.48330688365191        1.05126245007993       -0.00126233849021
H           -3.33537197484147        0.39068828575612       -0.50914662854247
H           -2.91047186872072        1.11525855621249        1.04373668400536
H           -2.50840755389382        1.96179003167107       -0.45338534274531
H           -2.04878661798120       -1.73178451133193       -0.01653570383227
H            0.19394963654608       -2.79632555035675        0.00266028704134
H           -0.06177945442688        2.07477338222500       -0.01180644732920
H            2.34005195463076        2.12958219944309        0.09933691243659
H            3.11913317282256        0.69621132820812        0.81485537573066
H            3.02175243891265        0.85485884406401       -0.93442050483317
