 xtb: 6.7.1 (edcfbbe)
          04162510293D

 26 27  0     0  0            999 V2000
   -3.5259   -0.5784   -1.5379 C   0  0  0  0  0  0  0  0  0  0  0  0
   -2.3949   -0.1575   -0.7490 N   0  0  0  0  0  0  0  0  0  0  0  0
   -2.4090   -0.2074    0.6040 C   0  0  0  0  0  0  0  0  0  0  0  0
   -3.3379   -0.5903    1.2620 O   0  0  0  0  0  0  0  0  0  0  0  0
   -1.2684    0.2001    1.2197 O   0  0  0  0  0  0  0  0  0  0  0  0
   -0.2011    0.7219    0.5060 C   0  0  0  0  0  0  0  0  0  0  0  0
   -0.2157    2.0304    0.0925 C   0  0  0  0  0  0  0  0  0  0  0  0
    0.8917    2.5692   -0.5779 C   0  0  0  0  0  0  0  0  0  0  0  0
    1.9920    1.7990   -0.8304 C   0  0  0  0  0  0  0  0  0  0  0  0
    2.0382    0.4503   -0.4188 C   0  0  0  0  0  0  0  0  0  0  0  0
    0.9251   -0.1074    0.2637 C   0  0  0  0  0  0  0  0  0  0  0  0
    0.9681   -1.4550    0.6759 C   0  0  0  0  0  0  0  0  0  0  0  0
    2.0706   -2.2214    0.4204 C   0  0  0  0  0  0  0  0  0  0  0  0
    3.1736   -1.6753   -0.2543 C   0  0  0  0  0  0  0  0  0  0  0  0
    3.1586   -0.3712   -0.6636 C   0  0  0  0  0  0  0  0  0  0  0  0
   -4.3105   -0.8820   -0.8472 H   0  0  0  0  0  0  0  0  0  0  0  0
   -3.2588   -1.4226   -2.1766 H   0  0  0  0  0  0  0  0  0  0  0  0
   -3.8872    0.2430   -2.1595 H   0  0  0  0  0  0  0  0  0  0  0  0
   -1.5633    0.1473   -1.2309 H   0  0  0  0  0  0  0  0  0  0  0  0
   -1.0825    2.6418    0.2944 H   0  0  0  0  0  0  0  0  0  0  0  0
    0.8619    3.6020   -0.8904 H   0  0  0  0  0  0  0  0  0  0  0  0
    2.8453    2.2129   -1.3471 H   0  0  0  0  0  0  0  0  0  0  0  0
    0.1176   -1.8622    1.2018 H   0  0  0  0  0  0  0  0  0  0  0  0
    2.1005   -3.2528    0.7383 H   0  0  0  0  0  0  0  0  0  0  0  0
    4.0368   -2.2956   -0.4457 H   0  0  0  0  0  0  0  0  0  0  0  0
    4.0071    0.0532   -1.1806 H   0  0  0  0  0  0  0  0  0  0  0  0
  1  2  1  0  0  0  0
  2  3  4  0  0  0  0
  3  4  2  0  0  0  0
  3  5  1  0  0  0  0
  5  6  1  0  0  0  0
  6  7  4  0  0  0  0
  7  8  4  0  0  0  0
  8  9  2  0  0  0  0
  9 10  4  0  0  0  0
  6 11  4  0  0  0  0
 10 11  4  0  0  0  0
 11 12  4  0  0  0  0
 12 13  2  0  0  0  0
 13 14  4  0  0  0  0
 10 15  4  0  0  0  0
 14 15  2  0  0  0  0
  1 16  1  0  0  0  0
  1 17  1  0  0  0  0
  1 18  1  0  0  0  0
  2 19  1  0  0  0  0
  7 20  1  0  0  0  0
  8 21  1  0  0  0  0
  9 22  1  0  0  0  0
 12 23  1  0  0  0  0
 13 24  1  0  0  0  0
 14 25  1  0  0  0  0
 15 26  1  0  0  0  0
M  END
