 xtb: 6.7.1 (edcfbbe)
          04152519153D

 19 19  0     0  0            999 V2000
    2.3960   -0.6570   -0.1029 C   0  0  0  0  0  0  0  0  0  0  0  0
    1.0810   -0.1216    0.4489 C   0  0  0  0  0  0  0  0  0  0  0  0
    1.1063   -0.1701    1.5504 H   0  0  0  0  0  0  0  0  0  0  0  0
    0.7629    1.3097   -0.0002 C   0  0  0  0  0  0  0  0  0  0  0  0
   -0.7613    1.3112   -0.0018 C   0  0  0  0  0  0  0  0  0  0  0  0
   -1.0835   -0.1200   -0.4488 C   0  0  0  0  0  0  0  0  0  0  0  0
   -1.1165   -0.1690   -1.5500 H   0  0  0  0  0  0  0  0  0  0  0  0
    0.0001   -0.9274   -0.0042 O   0  0  0  0  0  0  0  0  0  0  0  0
   -2.3954   -0.6536    0.1122 C   0  0  0  0  0  0  0  0  0  0  0  0
    3.2232   -0.0485    0.2533 H   0  0  0  0  0  0  0  0  0  0  0  0
    2.5410   -1.6832    0.2226 H   0  0  0  0  0  0  0  0  0  0  0  0
    2.3784   -0.6390   -1.1899 H   0  0  0  0  0  0  0  0  0  0  0  0
    1.1936    2.0550    0.6647 H   0  0  0  0  0  0  0  0  0  0  0  0
    1.1435    1.4722   -1.0101 H   0  0  0  0  0  0  0  0  0  0  0  0
   -1.1415    1.4765    1.0078 H   0  0  0  0  0  0  0  0  0  0  0  0
   -1.1905    2.0565   -0.6678 H   0  0  0  0  0  0  0  0  0  0  0  0
   -2.5443   -1.6795   -0.2126 H   0  0  0  0  0  0  0  0  0  0  0  0
   -3.2242   -0.0437   -0.2379 H   0  0  0  0  0  0  0  0  0  0  0  0
   -2.3701   -0.6361    1.1990 H   0  0  0  0  0  0  0  0  0  0  0  0
  1  2  1  0  0  0  0
  2  3  1  0  0  0  0
  2  4  1  0  0  0  0
  4  5  1  0  0  0  0
  5  6  1  0  0  0  0
  6  7  1  0  0  0  0
  2  8  1  0  0  0  0
  6  8  1  0  0  0  0
  6  9  1  0  0  0  0
  1 10  1  0  0  0  0
  1 11  1  0  0  0  0
  1 12  1  0  0  0  0
  4 13  1  0  0  0  0
  4 14  1  0  0  0  0
  5 15  1  0  0  0  0
  5 16  1  0  0  0  0
  9 17  1  0  0  0  0
  9 18  1  0  0  0  0
  9 19  1  0  0  0  0
M  END
