 xtb: 6.7.1 (edcfbbe)
          04152519383D

 23 23  0     0  0            999 V2000
   -2.7184   -0.4096   -0.6262 C   0  0  0  0  0  0  0  0  0  0  0  0
   -1.4662   -0.0083    0.1180 C   0  0  0  0  0  0  0  0  0  0  0  0
   -1.3907   -0.0789    1.3180 O   0  0  0  0  0  0  0  0  0  0  0  0
   -0.3466    0.4868   -0.7829 C   0  0  0  0  0  0  0  0  0  0  0  0
    0.4860   -0.7122   -1.2716 C   0  0  0  0  0  0  0  0  0  0  0  0
    1.3187   -1.3122   -0.1443 C   0  0  0  0  0  0  0  0  0  0  0  0
    2.2551   -0.2579    0.4356 C   0  0  0  0  0  0  0  0  0  0  0  0
    1.4418    0.9087    0.9840 C   0  0  0  0  0  0  0  0  0  0  0  0
    0.5643    1.5184   -0.1060 C   0  0  0  0  0  0  0  0  0  0  0  0
   -3.2429    0.4954   -0.9302 H   0  0  0  0  0  0  0  0  0  0  0  0
   -2.4774   -0.9770   -1.5210 H   0  0  0  0  0  0  0  0  0  0  0  0
   -3.3709   -0.9897    0.0211 H   0  0  0  0  0  0  0  0  0  0  0  0
   -0.8149    0.9529   -1.6577 H   0  0  0  0  0  0  0  0  0  0  0  0
   -0.1701   -1.4738   -1.6995 H   0  0  0  0  0  0  0  0  0  0  0  0
    1.1537   -0.3638   -2.0638 H   0  0  0  0  0  0  0  0  0  0  0  0
    0.6591   -1.6800    0.6438 H   0  0  0  0  0  0  0  0  0  0  0  0
    1.8929   -2.1588   -0.5275 H   0  0  0  0  0  0  0  0  0  0  0  0
    2.8612   -0.6947    1.2313 H   0  0  0  0  0  0  0  0  0  0  0  0
    2.9320    0.0977   -0.3462 H   0  0  0  0  0  0  0  0  0  0  0  0
    0.8086    0.5564    1.7976 H   0  0  0  0  0  0  0  0  0  0  0  0
    2.1084    1.6778    1.3803 H   0  0  0  0  0  0  0  0  0  0  0  0
   -0.0502    2.3135    0.3220 H   0  0  0  0  0  0  0  0  0  0  0  0
    1.2023    1.9640   -0.8745 H   0  0  0  0  0  0  0  0  0  0  0  0
  1  2  1  0  0  0  0
  2  3  2  0  0  0  0
  2  4  1  0  0  0  0
  4  5  1  0  0  0  0
  5  6  1  0  0  0  0
  6  7  1  0  0  0  0
  7  8  1  0  0  0  0
  4  9  1  0  0  0  0
  8  9  1  0  0  0  0
  1 10  1  0  0  0  0
  1 11  1  0  0  0  0
  1 12  1  0  0  0  0
  4 13  1  0  0  0  0
  5 14  1  0  0  0  0
  5 15  1  0  0  0  0
  6 16  1  0  0  0  0
  6 17  1  0  0  0  0
  7 18  1  0  0  0  0
  7 19  1  0  0  0  0
  8 20  1  0  0  0  0
  8 21  1  0  0  0  0
  9 22  1  0  0  0  0
  9 23  1  0  0  0  0
M  END
