 xtb: 6.7.1 (edcfbbe)
          04152519253D

  8  7  0     0  0            999 V2000
   -2.2348   -0.4190    0.0056 C   0  0  0  0  0  0  0  0  0  0  0  0
   -1.1844    0.6665   -0.0770 C   0  0  0  0  0  0  0  0  0  0  0  0
    0.5565    0.0096    0.5379 Br  0  0  0  0  0  0  0  0  0  0  0  0
   -3.1889   -0.0258   -0.3417 H   0  0  0  0  0  0  0  0  0  0  0  0
   -1.9617   -1.2693   -0.6162 H   0  0  0  0  0  0  0  0  0  0  0  0
   -2.3534   -0.7650    1.0305 H   0  0  0  0  0  0  0  0  0  0  0  0
   -1.4257    1.5151    0.5615 H   0  0  0  0  0  0  0  0  0  0  0  0
   -1.0307    1.0063   -1.1003 H   0  0  0  0  0  0  0  0  0  0  0  0
  1  2  1  0  0  0  0
  2  3  1  0  0  0  0
  1  4  1  0  0  0  0
  1  5  1  0  0  0  0
  1  6  1  0  0  0  0
  2  7  1  0  0  0  0
  2  8  1  0  0  0  0
M  END
