 xtb: 6.7.1 (edcfbbe)
          04152520403D

 16 16  0     0  0            999 V2000
    2.4700   -1.1498    0.2078 C   0  0  0  0  0  0  0  0  0  0  0  0
    1.7058    0.1472    0.1430 C   0  0  0  0  0  0  0  0  0  0  0  0
    2.2625    1.2203    0.1009 O   0  0  0  0  0  0  0  0  0  0  0  0
    0.2203    0.0537    0.1328 C   0  0  0  0  0  0  0  0  0  0  0  0
   -0.5212    1.2344    0.0441 C   0  0  0  0  0  0  0  0  0  0  0  0
   -1.9015    1.1698    0.0329 C   0  0  0  0  0  0  0  0  0  0  0  0
   -2.4971   -0.0817    0.1111 C   0  0  0  0  0  0  0  0  0  0  0  0
   -1.8094   -1.2081    0.1972 N   0  0  0  0  0  0  0  0  0  0  0  0
   -0.4917   -1.1442    0.2081 C   0  0  0  0  0  0  0  0  0  0  0  0
    2.2118   -1.7802   -0.6402 H   0  0  0  0  0  0  0  0  0  0  0  0
    2.2230   -1.6822    1.1239 H   0  0  0  0  0  0  0  0  0  0  0  0
    3.5363   -0.9389    0.1906 H   0  0  0  0  0  0  0  0  0  0  0  0
    0.0056    2.1759   -0.0144 H   0  0  0  0  0  0  0  0  0  0  0  0
   -2.5019    2.0635   -0.0349 H   0  0  0  0  0  0  0  0  0  0  0  0
   -3.5734   -0.1936    0.1053 H   0  0  0  0  0  0  0  0  0  0  0  0
    0.0073   -2.1008    0.2819 H   0  0  0  0  0  0  0  0  0  0  0  0
  1  2  1  0  0  0  0
  2  3  2  0  0  0  0
  2  4  1  0  0  0  0
  4  5  4  0  0  0  0
  5  6  4  0  0  0  0
  6  7  4  0  0  0  0
  7  8  4  0  0  0  0
  4  9  4  0  0  0  0
  8  9  4  0  0  0  0
  1 10  1  0  0  0  0
  1 11  1  0  0  0  0
  1 12  1  0  0  0  0
  5 13  1  0  0  0  0
  6 14  1  0  0  0  0
  7 15  1  0  0  0  0
  9 16  1  0  0  0  0
M  END
