14
 xtb: 6.7.1 (edcfbbe)
C           -1.60416519110434        1.69844437554383        0.36512727636907
C           -1.57787698372187        0.23526298665779        0.80336458563248
C           -2.25561086180371       -0.67376879412065       -0.22032096940345
C           -0.18218323111675       -0.23936863304043        1.17368512462135
Br           1.09492646671363       -0.21615978377729       -0.35401642976688
H           -1.06309000710197        1.82647206822584       -0.57718690506382
H           -2.63435179523569        2.03368288836253        0.21379083488315
H           -1.14050862979951        2.34939604378192        1.11340491025295
H           -2.13531036937376        0.15444087781939        1.75155393002822
H           -3.29291068677355       -0.36474979212314       -0.37843350326787
H           -2.25728901428331       -1.71767363175767        0.10953657529905
H           -1.73535955623615       -0.62304825955608       -1.18149880604665
H           -0.17979588948609       -1.27551496812975        1.51381830668074
H            0.28106777731565        0.40115916712966        1.92499320024903
