 xtb: 6.7.1 (edcfbbe)
          04162509563D

 22 23  0     0  0            999 V2000
   -4.3802    0.5054   -0.1637 C   0  0  0  0  0  0  0  0  0  0  0  0
   -3.5647    1.4937   -0.6818 C   0  0  0  0  0  0  0  0  0  0  0  0
   -2.1855    1.3573   -0.6359 C   0  0  0  0  0  0  0  0  0  0  0  0
   -1.5959    0.2248   -0.0714 C   0  0  0  0  0  0  0  0  0  0  0  0
   -2.4268   -0.7707    0.4340 C   0  0  0  0  0  0  0  0  0  0  0  0
   -3.8030   -0.6274    0.3909 C   0  0  0  0  0  0  0  0  0  0  0  0
   -4.8068   -1.8735    1.0342 Cl  0  0  0  0  0  0  0  0  0  0  0  0
   -0.1337    0.0483   -0.0059 C   0  0  0  0  0  0  0  0  0  0  0  0
    0.4426   -1.1174   -0.4994 C   0  0  0  0  0  0  0  0  0  0  0  0
    1.8144   -1.2960   -0.4426 C   0  0  0  0  0  0  0  0  0  0  0  0
    2.6355   -0.3182    0.1170 C   0  0  0  0  0  0  0  0  0  0  0  0
    2.0488    0.8418    0.6213 C   0  0  0  0  0  0  0  0  0  0  0  0
    0.6779    1.0255    0.5601 C   0  0  0  0  0  0  0  0  0  0  0  0
    3.0371    2.0565    1.3294 Cl  0  0  0  0  0  0  0  0  0  0  0  0
    4.3361   -0.5400    0.1872 Cl  0  0  0  0  0  0  0  0  0  0  0  0
    2.5109   -2.7379   -1.0683 Cl  0  0  0  0  0  0  0  0  0  0  0  0
   -1.2069    2.5930   -1.3424 Cl  0  0  0  0  0  0  0  0  0  0  0  0
   -5.4528    0.6099   -0.1938 H   0  0  0  0  0  0  0  0  0  0  0  0
   -3.9969    2.3754   -1.1275 H   0  0  0  0  0  0  0  0  0  0  0  0
   -1.9879   -1.6508    0.8771 H   0  0  0  0  0  0  0  0  0  0  0  0
   -0.1737   -1.8810   -0.9466 H   0  0  0  0  0  0  0  0  0  0  0  0
    0.2477    1.9253    0.9690 H   0  0  0  0  0  0  0  0  0  0  0  0
  1  2  4  0  0  0  0
  2  3  4  0  0  0  0
  3  4  4  0  0  0  0
  4  5  4  0  0  0  0
  1  6  4  0  0  0  0
  5  6  4  0  0  0  0
  6  7  1  0  0  0  0
  4  8  1  0  0  0  0
  8  9  4  0  0  0  0
  9 10  4  0  0  0  0
 10 11  4  0  0  0  0
 11 12  4  0  0  0  0
  8 13  4  0  0  0  0
 12 13  4  0  0  0  0
 12 14  1  0  0  0  0
 11 15  1  0  0  0  0
 10 16  1  0  0  0  0
  3 17  1  0  0  0  0
  1 18  1  0  0  0  0
  2 19  1  0  0  0  0
  5 20  1  0  0  0  0
  9 21  1  0  0  0  0
 13 22  1  0  0  0  0
M  END
