 xtb: 6.7.1 (edcfbbe)
          04152520063D

 17 17  0     0  0            999 V2000
    2.8734   -0.7442   -0.1114 C   0  0  0  0  0  0  0  0  0  0  0  0
    1.9948    0.4813    0.1011 C   0  0  0  0  0  0  0  0  0  0  0  0
    0.5126    0.2308    0.0451 C   0  0  0  0  0  0  0  0  0  0  0  0
   -0.3628    1.2979    0.2413 C   0  0  0  0  0  0  0  0  0  0  0  0
   -1.7265    1.0745    0.1905 C   0  0  0  0  0  0  0  0  0  0  0  0
   -2.2625   -0.1139   -0.0374 N   0  0  0  0  0  0  0  0  0  0  0  0
   -1.4372   -1.1275   -0.2238 C   0  0  0  0  0  0  0  0  0  0  0  0
   -0.0550   -1.0143   -0.1937 C   0  0  0  0  0  0  0  0  0  0  0  0
    2.6808   -1.4966    0.6501 H   0  0  0  0  0  0  0  0  0  0  0  0
    3.9214   -0.4593   -0.0490 H   0  0  0  0  0  0  0  0  0  0  0  0
    2.6992   -1.1818   -1.0919 H   0  0  0  0  0  0  0  0  0  0  0  0
    2.2383    1.2344   -0.6550 H   0  0  0  0  0  0  0  0  0  0  0  0
    2.2254    0.9253    1.0746 H   0  0  0  0  0  0  0  0  0  0  0  0
    0.0219    2.2893    0.4311 H   0  0  0  0  0  0  0  0  0  0  0  0
   -2.4303    1.8834    0.3390 H   0  0  0  0  0  0  0  0  0  0  0  0
   -1.9088   -2.0846   -0.4075 H   0  0  0  0  0  0  0  0  0  0  0  0
    0.5541   -1.8887   -0.3551 H   0  0  0  0  0  0  0  0  0  0  0  0
  1  2  1  0  0  0  0
  2  3  1  0  0  0  0
  3  4  4  0  0  0  0
  4  5  4  0  0  0  0
  5  6  4  0  0  0  0
  6  7  4  0  0  0  0
  3  8  4  0  0  0  0
  7  8  4  0  0  0  0
  1  9  1  0  0  0  0
  1 10  1  0  0  0  0
  1 11  1  0  0  0  0
  2 12  1  0  0  0  0
  2 13  1  0  0  0  0
  4 14  1  0  0  0  0
  5 15  1  0  0  0  0
  7 16  1  0  0  0  0
  8 17  1  0  0  0  0
M  END
