15
 xtb: 6.7.1 (edcfbbe)
C           -2.20442970471649        0.05371269022840       -0.43804298574195
C           -1.03568416677783        0.49388253864998        0.45412359339374
C           -0.00578307830057       -0.58464755774839        0.59634543496791
C            1.27767123441390       -0.54997405523477        0.22857755580170
C            2.01920818506650        0.58480528507490       -0.40523262151649
H           -1.85574687424902       -0.16172003604159       -1.45255993061470
H           -2.97254656824501        0.83114328608433       -0.49483019621749
H           -2.67296182542075       -0.85554216834513       -0.04711083754528
H           -0.59286700212723        1.41174220534694        0.05616365770447
H           -1.42638987372530        0.74508434677528        1.45006848428299
H           -0.37341055207111       -1.50999442322200        1.04105968155322
H            1.87150682719254       -1.44609327069631        0.40590665583190
H            1.38621429817755        1.45235035908849       -0.59910563382989
H            2.46534508186919        0.27096055042815       -1.35677674298920
H            2.84870735689495        0.90960043347379        0.23513623735956
