18
CONF2
C -2.1840245060 -0.0715426605 -0.2154098412
C -0.7944791318 0.0129433828 0.4024276316
C 0.0973826514 -1.2298122274 0.1112632819
C 1.4806039110 -0.6827248240 -0.3145949753
C 1.4812645103 0.7773031575 0.1584635349
C 0.0365646387 1.2075692941 -0.0983079200
H -2.7451708232 -0.9271279924 0.1766770710
H -2.7678458180 0.8329858224 -0.0097551958
H -2.1134200740 -0.1867111793 -1.3036622341
H -0.9022276079 0.1149640226 1.4901209618
H 0.1790704774 -1.8598323783 1.0027200315
H -0.3443238803 -1.8485727574 -0.6774069378
H 2.3124042716 -1.2659996136 0.0918397952
H 1.5703598059 -0.7029031858 -1.4068828887
H 1.6968280483 0.8269797665 1.2337001803
H 2.2211308315 1.3949445835 -0.3608619370
H -0.2390857528 2.1458170468 0.3945966387
H -0.1203921861 1.3370389132 -1.1784399613
