18
CONF2
C -2.1747637957 0.0780100155 -0.2394819862
C -0.7989087099 -0.0112885873 0.4103820654
C 0.0355524217 -1.2133397186 -0.0731630162
C 1.4833115505 -0.7739228233 0.1513442088
C 1.4650744565 0.6779717999 -0.3434294176
C 0.1048581025 1.2299458581 0.1397988389
H -2.7624666838 -0.8276713413 -0.0541222478
H -2.7434846080 0.9317999825 0.1437865801
H -2.0781627915 0.1992619262 -1.3248241175
H -0.9344623837 -0.1118817256 1.4950952320
H -0.2295375063 -2.1421410771 0.4422414507
H -0.1350252913 -1.3707107890 -1.1473202763
H 1.7210275364 -0.8055095161 1.2226270213
H 2.2157054697 -1.3976468070 -0.3706363032
H 2.3151958775 1.2673742427 0.0123690444
H 1.5032384070 0.6812312470 -1.4391808194
H 0.2263757700 1.8201063995 1.0537001487
H -0.3475062886 1.8923328567 -0.6057600560
