 xtb: 6.7.1 (edcfbbe)
          04152519513D

 10  9  0     0  0            999 V2000
   -0.6110    0.0114    0.4653 C   0  0  0  0  0  0  0  0  0  0  0  0
    0.6110   -0.0116   -0.4651 C   0  0  0  0  0  0  0  0  0  0  0  0
    1.8234    0.0125    0.2446 O   0  0  0  0  0  0  0  0  0  0  0  0
   -1.8234   -0.0127   -0.2444 O   0  0  0  0  0  0  0  0  0  0  0  0
   -0.5500    0.8920    1.1206 H   0  0  0  0  0  0  0  0  0  0  0  0
   -0.6192   -0.8858    1.0917 H   0  0  0  0  0  0  0  0  0  0  0  0
    0.6193    0.8856   -1.0915 H   0  0  0  0  0  0  0  0  0  0  0  0
    0.5500   -0.8922   -1.1204 H   0  0  0  0  0  0  0  0  0  0  0  0
    1.8742   -0.7694    0.8055 H   0  0  0  0  0  0  0  0  0  0  0  0
   -1.8742    0.7692   -0.8053 H   0  0  0  0  0  0  0  0  0  0  0  0
  1  2  1  0  0  0  0
  2  3  1  0  0  0  0
  1  4  1  0  0  0  0
  1  5  1  0  0  0  0
  1  6  1  0  0  0  0
  2  7  1  0  0  0  0
  2  8  1  0  0  0  0
  3  9  1  0  0  0  0
  4 10  1  0  0  0  0
M  END
