22
 xtb: 6.7.1 (edcfbbe)
C            3.36724851524804        0.10980247103634       -0.06543452983011
N            1.95468827184409        0.43001150910329        0.08960023034263
C            1.68074696167129        1.70561361148451        0.73677037655629
C            1.04515996191814       -0.59108427535441       -0.03270512462986
O            1.38640905240243       -1.75440036224795       -0.22473888452714
C           -0.41185079268101       -0.23778530531729        0.01375752309582
C           -1.26778954419614       -1.07671260803491        0.72988331315222
C           -2.63617732592233       -0.83712179786969        0.73892594571530
C           -3.16513724027114        0.22323894212699        0.00662048692452
C           -2.31989171420020        1.04394394495116       -0.73459620149587
C           -0.94712541015386        0.81983499061687       -0.72548648284231
H            3.47056268377386       -0.77035561026233       -0.70013362506244
H            3.83841780480689       -0.10364039723488        0.90479852749297
H            3.88222929610129        0.96214314474885       -0.52244458189695
H            2.30478324035518        1.80744856565929        1.63541386524358
H            0.63564484863852        1.76902777178257        1.03774452217557
H            1.90821039141880        2.54604470093134        0.06753632056525
H           -0.84460952188769       -1.91926399468393        1.26651979380460
H           -3.29404414954162       -1.48487223268576        1.30934979161261
H           -4.23542630281673        0.40290306110296        0.00518804923538
H           -2.73040060263598        1.85726411275871       -1.32450583791781
H           -0.28853393813139        1.45431169939234       -1.31100794323627
