 xtb: 6.7.1 (edcfbbe)
          04152520073D

 22 23  0     0  0            999 V2000
   -4.3915   -0.0001   -0.0007 C   0  0  0  0  0  0  0  0  0  0  0  0
   -3.6979   -0.5793   -1.0499 C   0  0  0  0  0  0  0  0  0  0  0  0
   -2.3150   -0.5833   -1.0505 C   0  0  0  0  0  0  0  0  0  0  0  0
   -1.6153   -0.0000   -0.0003 C   0  0  0  0  0  0  0  0  0  0  0  0
   -2.3153    0.5833    1.0498 C   0  0  0  0  0  0  0  0  0  0  0  0
   -3.6982    0.5793    1.0487 C   0  0  0  0  0  0  0  0  0  0  0  0
   -0.1379   -0.0000   -0.0001 C   0  0  0  0  0  0  0  0  0  0  0  0
    0.5891   -1.1887    0.0698 C   0  0  0  0  0  0  0  0  0  0  0  0
    1.9744   -1.2040    0.0727 C   0  0  0  0  0  0  0  0  0  0  0  0
    2.6567   -0.0001    0.0004 C   0  0  0  0  0  0  0  0  0  0  0  0
    1.9744    1.2038   -0.0722 C   0  0  0  0  0  0  0  0  0  0  0  0
    0.5892    1.1886   -0.0697 C   0  0  0  0  0  0  0  0  0  0  0  0
   -0.2526    2.6886   -0.1874 Cl  0  0  0  0  0  0  0  0  0  0  0  0
    4.3778   -0.0001    0.0007 Cl  0  0  0  0  0  0  0  0  0  0  0  0
   -0.2528   -2.6887    0.1872 Cl  0  0  0  0  0  0  0  0  0  0  0  0
   -5.4713   -0.0001   -0.0008 H   0  0  0  0  0  0  0  0  0  0  0  0
   -4.2351   -1.0303   -1.8710 H   0  0  0  0  0  0  0  0  0  0  0  0
   -1.7714   -1.0283   -1.8709 H   0  0  0  0  0  0  0  0  0  0  0  0
   -1.7719    1.0283    1.8703 H   0  0  0  0  0  0  0  0  0  0  0  0
   -4.2357    1.0302    1.8697 H   0  0  0  0  0  0  0  0  0  0  0  0
    2.5086   -2.1380    0.1326 H   0  0  0  0  0  0  0  0  0  0  0  0
    2.5087    2.1378   -0.1319 H   0  0  0  0  0  0  0  0  0  0  0  0
  1  2  4  0  0  0  0
  2  3  4  0  0  0  0
  3  4  4  0  0  0  0
  4  5  4  0  0  0  0
  1  6  4  0  0  0  0
  5  6  4  0  0  0  0
  4  7  1  0  0  0  0
  7  8  4  0  0  0  0
  8  9  4  0  0  0  0
  9 10  4  0  0  0  0
 10 11  4  0  0  0  0
  7 12  4  0  0  0  0
 11 12  4  0  0  0  0
 12 13  1  0  0  0  0
 10 14  1  0  0  0  0
  8 15  1  0  0  0  0
  1 16  1  0  0  0  0
  2 17  1  0  0  0  0
  3 18  1  0  0  0  0
  5 19  1  0  0  0  0
  6 20  1  0  0  0  0
  9 21  1  0  0  0  0
 11 22  1  0  0  0  0
M  END
