17
 xtb: 6.7.1 (edcfbbe)
C           -2.75525982070138       -0.79721973977036        0.00016266071587
O           -1.79789238866496        0.25541753339992       -0.00006270651505
C           -0.48372438172572       -0.10167657126723       -0.00003791214811
C           -0.00345090666293       -1.40822920462606       -0.00005951462936
C            1.37067793582678       -1.65870909672058       -0.00001692366419
C            2.27079141795978       -0.60505779721568        0.00004672442739
C            1.79671706962450        0.70710662523497        0.00005756142172
C            0.43375906380267        0.96796436105798        0.00001164981229
O           -0.08891668209562        2.23067828029530        0.00002144066520
H           -2.65963323659255       -1.42385602819660        0.89674327616480
H           -2.65992847544564       -1.42399286126344       -0.89635512262486
H           -3.73113393539438       -0.31022480637033        0.00028176962338
H           -0.69441549980423       -2.24201484041457       -0.00011515692172
H            1.72448488353488       -2.68390915117216       -0.00003301446133
H            3.33924079122088       -0.79037915249172        0.00009035559805
H            2.49546671940638        1.54073487235451        0.00011201802073
H            0.64066568372980        2.86034699539307        0.00004787128259
