11
CONF1
C -1.4169375485 -0.9929311392 0.0001974117
S -0.0000378796 0.1090366636 -0.0004478265
O -0.0008920206 0.8854095818 1.2669133149
O -0.0004612802 0.8832555758 -1.2691334454
C 1.4186823565 -0.9905873497 0.0006913202
H -1.3811502470 -1.6101993447 -0.9002699540
H -1.3825211887 -1.6074697144 0.9025766237
H -2.3081461961 -0.3594290490 -0.0014609163
H 1.3839943477 -1.6081909743 -0.8995951266
H 2.3088449888 -0.3556046493 -0.0010707019
H 1.3851671219 -1.6049033762 0.9032628775
