 xtb: 6.7.1 (edcfbbe)
          04152520293D

 12 11  0     0  0            999 V2000
   -0.5171   -1.4128    0.0001 C   0  0  0  0  0  0  0  0  0  0  0  0
   -0.4206    0.0272    0.0000 N   0  0  0  0  0  0  0  0  0  0  0  0
   -1.6603    0.7548   -0.0001 C   0  0  0  0  0  0  0  0  0  0  0  0
    0.7830    0.6226    0.0000 C   0  0  0  0  0  0  0  0  0  0  0  0
    1.8474    0.0517    0.0001 O   0  0  0  0  0  0  0  0  0  0  0  0
   -1.0478   -1.7602   -0.8893 H   0  0  0  0  0  0  0  0  0  0  0  0
   -1.0484   -1.7600    0.8891 H   0  0  0  0  0  0  0  0  0  0  0  0
    0.4944   -1.8145    0.0005 H   0  0  0  0  0  0  0  0  0  0  0  0
   -2.2491    0.5037   -0.8869 H   0  0  0  0  0  0  0  0  0  0  0  0
   -1.4628    1.8251   -0.0004 H   0  0  0  0  0  0  0  0  0  0  0  0
   -2.2490    0.5042    0.8869 H   0  0  0  0  0  0  0  0  0  0  0  0
    0.7005    1.7260   -0.0001 H   0  0  0  0  0  0  0  0  0  0  0  0
  1  2  1  0  0  0  0
  2  3  1  0  0  0  0
  2  4  4  0  0  0  0
  4  5  2  0  0  0  0
  1  6  1  0  0  0  0
  1  7  1  0  0  0  0
  1  8  1  0  0  0  0
  3  9  1  0  0  0  0
  3 10  1  0  0  0  0
  3 11  1  0  0  0  0
  4 12  1  0  0  0  0
M  END
