5
 xtb: 6.7.1 (edcfbbe)
C            1.62920479571754        0.00004742650478       -0.00000083466740
Br          -0.33359877462483       -0.00006205382666       -0.00000083419969
H            1.95857278287668        0.95797362522347       -0.39573502782223
H            1.95863107265088       -0.13617060594216        1.02745293001762
H            1.95866847436032       -0.82161544400621       -0.63170777690029
