 xtb: 6.7.1 (edcfbbe)
          04152519533D

 17 17  0     0  0            999 V2000
    2.7377    0.2245    0.6528 C   0  0  0  0  0  0  0  0  0  0  0  0
    1.9738   -0.0856   -0.6362 C   0  0  0  0  0  0  0  0  0  0  0  0
    0.4955   -0.0623   -0.3852 C   0  0  0  0  0  0  0  0  0  0  0  0
   -0.1937   -1.2008    0.0160 C   0  0  0  0  0  0  0  0  0  0  0  0
   -1.5510   -1.1172    0.2767 C   0  0  0  0  0  0  0  0  0  0  0  0
   -2.1738    0.1126    0.1287 C   0  0  0  0  0  0  0  0  0  0  0  0
   -1.5330    1.2045   -0.2513 N   0  0  0  0  0  0  0  0  0  0  0  0
   -0.2392    1.1142   -0.4985 C   0  0  0  0  0  0  0  0  0  0  0  0
    2.4620    1.2073    1.0285 H   0  0  0  0  0  0  0  0  0  0  0  0
    3.8098    0.2096    0.4714 H   0  0  0  0  0  0  0  0  0  0  0  0
    2.5048   -0.5122    1.4188 H   0  0  0  0  0  0  0  0  0  0  0  0
    2.2704   -1.0703   -1.0042 H   0  0  0  0  0  0  0  0  0  0  0  0
    2.2302    0.6567   -1.3947 H   0  0  0  0  0  0  0  0  0  0  0  0
    0.3289   -2.1423    0.1189 H   0  0  0  0  0  0  0  0  0  0  0  0
   -2.1122   -1.9855    0.5869 H   0  0  0  0  0  0  0  0  0  0  0  0
   -3.2320    0.2337    0.3200 H   0  0  0  0  0  0  0  0  0  0  0  0
    0.2402    2.0346   -0.8093 H   0  0  0  0  0  0  0  0  0  0  0  0
  1  2  1  0  0  0  0
  2  3  1  0  0  0  0
  3  4  4  0  0  0  0
  4  5  4  0  0  0  0
  5  6  4  0  0  0  0
  6  7  4  0  0  0  0
  3  8  4  0  0  0  0
  7  8  4  0  0  0  0
  1  9  1  0  0  0  0
  1 10  1  0  0  0  0
  1 11  1  0  0  0  0
  2 12  1  0  0  0  0
  2 13  1  0  0  0  0
  4 14  1  0  0  0  0
  5 15  1  0  0  0  0
  6 16  1  0  0  0  0
  8 17  1  0  0  0  0
M  END
