24
 xtb: 6.7.1 (edcfbbe)
C           -3.68032702046929       -0.16653521167385       -0.11971791243823
C           -2.18379225253915       -0.06706987949803       -0.00894141457916
C           -1.49004193299247        0.99735989627869       -0.58738167897510
C           -0.10531656323078        1.08340717291897       -0.51088043639048
C            0.65428001080167        0.11020289120927        0.14982864745554
C           -0.04659376190767       -0.95069132561894        0.73081827502245
C           -1.43374065932761       -1.03639029685305        0.65415519755704
C            2.17087177769182        0.22719533224846        0.26792253410192
C            2.80148630488858        0.98518055659304       -0.90700664276259
C            2.86167344699343       -1.13321189295714        0.42408028795048
H           -4.16111707461228        0.78133579839009        0.14223718137314
H           -3.98231074166906       -0.41164656600707       -1.14450545030916
H           -4.07655826245013       -0.94322896526110        0.53916065880329
H           -2.04305848308534        1.77336567837242       -1.11115312545992
H            0.38388663562721        1.93030117367156       -0.97830089857886
H            0.48780612959076       -1.73272574350089        1.25773603224186
H           -1.94034095909910       -1.87833947157753        1.11885441723779
H            2.37709074230258        0.80680820895411        1.18100956009347
H            2.47249041999975        2.02576381612326       -0.95993001002947
H            2.55424717009149        0.50020385846174       -1.85785796228490
H            3.89055375420518        0.99595601455639       -0.80266878459769
H            3.94719888891416       -1.00004944503429        0.45297271380147
H            2.62028845448976       -1.78849449492469       -0.42017075576591
H            2.57464398203885       -1.64527731672538        1.34553623766289
