23
 xtb: 6.7.1 (edcfbbe)
C           -2.68168819177627        0.97738162714051       -0.44470582786395
C           -1.77639314670510       -0.16337061624944       -0.02213673694316
O           -2.21427371158123       -1.10886327438507        0.60165780907100
C           -0.30333925170579       -0.04730335249114       -0.38524385384303
C            0.48915582228390       -1.29035863704201        0.01443619298028
C            1.96640452433645       -1.15021774875190       -0.35639279735851
C            2.57809632058400        0.10083425456591        0.27699577817691
C            1.79321012403339        1.35276170297804       -0.11774370630561
C            0.31106584447722        1.22213545018834        0.24222616452443
H           -3.70288892803706        0.60919290078380       -0.55460042537613
H           -2.68008050375697        1.73674608890574        0.34630177830015
H           -2.34345851019390        1.45958156346143       -1.36603676612983
H           -0.25937074660641        0.07730474172311       -1.48054217095464
H            0.38773379621070       -1.43609103130608        1.09703571347175
H            0.04891649324442       -2.17620270172823       -0.45436423213439
H            2.51704403241340       -2.04410169945670       -0.04208909192866
H            2.06549062033536       -1.08691024681798       -1.44944341362266
H            2.56289872960581       -0.00450375825254        1.37072604104595
H            3.62864393883485        0.20539806539558       -0.01737727847297
H            2.21482807412121        2.23976134682439        0.36921829911720
H            1.88573300617924        1.51058178696237       -1.20145251902449
H            0.20298586829065        1.15777541468274        1.33430173797482
H           -0.23292050032763        2.11562849949384       -0.08374634914551
