15
CONF1
C -2.4499050038 -0.0010256876 0.0088927391
C -0.9472742820 -0.0029282447 -0.0108231450
C -0.2278685168 -1.2021101796 -0.0078413402
C 1.1656921932 -1.2016021920 0.0022320358
C 1.8659657669 0.0024210397 0.0076580854
C 1.1605959104 1.2046624356 0.0021597486
C -0.2317515666 1.1999108272 -0.0080926551
H -2.8528415018 -0.9464140035 -0.3638758833
H -2.8240956696 0.1388947023 1.0302476863
H -2.8528170506 0.8152054657 -0.5978549428
H -0.7670654037 -2.1458241434 -0.0154060011
H 1.7049328579 -2.1442843999 0.0018900352
H 2.9514885859 0.0046744624 0.0122807366
H 1.6966346162 2.1491775562 0.0018803154
H -0.7749367609 2.1415079018 -0.0155593477
