15
CONF1
C -2.4499054330 -0.0000163646 0.0109071019
C -0.9454828477 -0.0000570302 -0.0115471788
C -0.2290621134 -1.1992526008 -0.0086809267
C 1.1621943610 -1.2017861346 0.0025912889
C 1.8638561537 0.0000434455 0.0087228530
C 1.1620953888 1.2018442685 0.0024380173
C -0.2291325946 1.1992134089 -0.0088263004
H -2.8550140283 -0.8874918077 -0.4827849335
H -2.8233944273 0.0024806040 1.0417327716
H -2.8550053621 0.8851269331 -0.4869926043
H -0.7693163656 -2.1422604451 -0.0165231678
H 1.6997011113 -2.1450837678 0.0022590824
H 2.9490835402 0.0000992893 0.0140363615
H 1.6995612211 2.1451652084 0.0020200959
H -0.7694770609 2.1421722766 -0.0167844142
