17
 xtb: 6.7.1 (edcfbbe)
C           -0.18531230167805       -2.33257957792935       -0.28969103848244
C            0.48493302993198       -0.99940493402864       -0.12035101125946
C            1.88522097003262       -0.95929593254009       -0.10898594992809
C            2.59854078128475        0.22179835514295        0.04106949745973
C            1.92422572369974        1.43013317807881        0.18713327489610
C            0.53984373944679        1.43675071336810        0.18005359134617
C           -0.16150686742977        0.24120562458950        0.02931848326893
N           -1.63877207622016        0.35414581690506        0.03587531839137
O           -2.29850988049181       -0.67389418998355       -0.06853068421881
O           -2.12399524352338        1.47399653291999        0.14643587533095
H           -0.82649953620901       -2.57165298193530        0.56194282677055
H           -0.83058029317483       -2.35043337316442       -1.17121105034506
H            0.57682140360881       -3.10874838006065       -0.39080846241137
H            2.42356696687502       -1.89497834928718       -0.22287248539159
H            3.68341328385361        0.19707677026502        0.04346586059416
H            2.46997693590766        2.35957738422610        0.30537167305403
H           -0.02009200342549        2.35616567828842        0.29027826775081
