 xtb: 6.7.1 (edcfbbe)
          04162510173D

 12 11  0     0  0            999 V2000
   -2.1655   -0.0642    0.0019 C   0  0  0  0  0  0  0  0  0  0  0  0
   -0.9935    0.1846    0.7467 O   0  0  0  0  0  0  0  0  0  0  0  0
    0.4039    0.1046   -0.0472 S   0  0  0  0  0  0  0  0  0  0  0  0
    1.3582    0.8180    0.7293 O   0  0  0  0  0  0  0  0  0  0  0  0
    0.1890    0.4734   -1.4130 O   0  0  0  0  0  0  0  0  0  0  0  0
    0.7747   -1.6575    0.0358 C   0  0  0  0  0  0  0  0  0  0  0  0
   -2.9618    0.5479    0.4241 H   0  0  0  0  0  0  0  0  0  0  0  0
   -2.4406   -1.1203    0.0705 H   0  0  0  0  0  0  0  0  0  0  0  0
   -1.9957    0.2105   -1.0411 H   0  0  0  0  0  0  0  0  0  0  0  0
    0.0213   -2.1898   -0.5276 H   0  0  0  0  0  0  0  0  0  0  0  0
    1.7528   -1.8052   -0.4008 H   0  0  0  0  0  0  0  0  0  0  0  0
    0.7724   -1.9393    1.0791 H   0  0  0  0  0  0  0  0  0  0  0  0
  1  2  1  0  0  0  0
  2  3  1  0  0  0  0
  3  4  2  0  0  0  0
  3  5  2  0  0  0  0
  3  6  1  0  0  0  0
  1  7  1  0  0  0  0
  1  8  1  0  0  0  0
  1  9  1  0  0  0  0
  6 10  1  0  0  0  0
  6 11  1  0  0  0  0
  6 12  1  0  0  0  0
M  END
