24
CONF2
C 2.3459311844 -0.7138888368 0.1282381340
C 0.8634294419 -0.5301267278 0.4456933180
H 0.6923881339 -0.8860859532 1.4735700600
C -0.0120487660 -1.3884645633 -0.4761952850
C -1.4967056574 -1.2639202030 -0.1293077200
C -1.9470947702 0.1979620192 -0.1499330945
C -1.0713392677 1.0484784934 0.7738633085
C 0.4235473283 0.9514015609 0.4256873160
H 0.9848872276 1.4663801332 1.2186876773
C 0.7454410345 1.6651933262 -0.8906674830
H 2.5608610990 -0.4873292360 -0.9220015089
H 2.9712704800 -0.0611942151 0.7485162002
H 2.6556263296 -1.7489261253 0.3109962252
H 0.1471560002 -1.0845578270 -1.5201640018
H 0.3070175549 -2.4361711432 -0.4048924795
H -2.1011212497 -1.8603700398 -0.8232001327
H -1.6656339636 -1.6754748618 0.8760905764
H -1.8927757687 0.5825240500 -1.1771038401
H -2.9966847630 0.2759742348 0.1579427273
H -1.3902777626 2.0978855490 0.7412681239
H -1.2156969402 0.7029325122 1.8072308358
H 0.3560242161 2.6895633337 -0.8691378787
H 0.3038202398 1.1630876231 -1.7574441066
H 1.8253310986 1.7272728371 -1.0586491312
