23
 xtb: 6.7.1 (edcfbbe)
C           -2.50650630722767       -1.01587640136805       -0.01252448204123
C           -1.72614090852996        0.20908844914907       -0.49333895458808
C           -0.58995507091549        0.63640806356190        0.45652694859471
C            0.83956453200913        0.17179694135545        0.09544285608025
C            1.31327003645781        0.85792277371734       -1.19336886025518
C            1.77471022883374        0.58035652924620        1.24229531024227
C            0.90573197846601       -1.34971906234090       -0.08310070803832
H           -2.97246910332790       -0.81808356538297        0.95900645619141
H           -3.30203994093935       -1.28181827545940       -0.71612202396018
H           -1.85849977783684       -1.88912899945660        0.10513670810113
H           -1.32757802617925        0.01807619847639       -1.49688510733075
H           -2.42892169962980        1.04185708893186       -0.61122319077127
H           -0.82289864270878        0.27321361316016        1.46740492557669
H           -0.56274305045508        1.73139529844758        0.52890269778586
H            2.34177505073599        0.56335668134826       -1.42931190759111
H            0.68904145213911        0.59036938122056       -2.05189649712889
H            1.29068947202661        1.94830816050831       -1.08584851658361
H            2.81110172538615        0.30451786914071        1.01829184253347
H            1.48781705671722        0.08624679362316        2.17729520986706
H            1.74213250371935        1.66315937900771        1.40806824519128
H            1.93687773686791       -1.66707347900983       -0.27549724336373
H            0.55677815245396       -1.86690305955352        0.81768803233903
H            0.29422851615871       -1.68395010925658       -0.92772669422244
