 xtb: 6.7.1 (edcfbbe)
          04152520093D

 14 13  0     0  0            999 V2000
   -1.6853    1.6742    0.4539 C   0  0  0  0  0  0  0  0  0  0  0  0
   -1.5610    0.2033    0.8398 C   0  0  0  0  0  0  0  0  0  0  0  0
   -2.2241   -0.6933   -0.2016 C   0  0  0  0  0  0  0  0  0  0  0  0
   -0.1071   -0.1900    1.0656 C   0  0  0  0  0  0  0  0  0  0  0  0
    0.9892    0.0035   -0.5408 Br  0  0  0  0  0  0  0  0  0  0  0  0
   -1.2263    2.3122    1.2068 H   0  0  0  0  0  0  0  0  0  0  0  0
   -1.1975    1.8596   -0.5009 H   0  0  0  0  0  0  0  0  0  0  0  0
   -2.7323    1.9520    0.3612 H   0  0  0  0  0  0  0  0  0  0  0  0
   -2.0624    0.0501    1.8051 H   0  0  0  0  0  0  0  0  0  0  0  0
   -2.1459   -1.7409    0.0833 H   0  0  0  0  0  0  0  0  0  0  0  0
   -1.7511   -0.5626   -1.1727 H   0  0  0  0  0  0  0  0  0  0  0  0
   -3.2773   -0.4421   -0.2989 H   0  0  0  0  0  0  0  0  0  0  0  0
   -0.0195   -1.2361    1.3575 H   0  0  0  0  0  0  0  0  0  0  0  0
    0.3623    0.4409    1.8200 H   0  0  0  0  0  0  0  0  0  0  0  0
  1  2  1  0  0  0  0
  2  3  1  0  0  0  0
  2  4  1  0  0  0  0
  4  5  1  0  0  0  0
  1  6  1  0  0  0  0
  1  7  1  0  0  0  0
  1  8  1  0  0  0  0
  2  9  1  0  0  0  0
  3 10  1  0  0  0  0
  3 11  1  0  0  0  0
  3 12  1  0  0  0  0
  4 13  1  0  0  0  0
  4 14  1  0  0  0  0
M  END
