17
CONF1
C 2.4195988110 0.6946108887 -0.0000438411
C 2.3945011082 -0.7173384105 -0.0000344775
C 1.2008074764 -1.3971741831 -0.0000139652
C -0.0244378526 -0.6901144340 -0.0000162685
C 0.0009745924 0.7399342828 -0.0000174882
C 1.2468465784 1.4096954717 -0.0000271534
C -1.2398513121 1.4142910349 -0.0000312544
C -2.4003733172 0.6839039072 -0.0000552954
C -2.3166965511 -0.7265825787 -0.0000465010
N -1.1864249550 -1.4014207517 -0.0000237498
H 3.3729312158 1.2131750951 -0.0000653689
H 3.3307543231 -1.2665803894 -0.0000484827
H 1.1592190462 -2.4811359258 -0.0000043258
H 1.2600326336 2.4963474004 -0.0000284926
H -1.2576009389 2.5009305795 -0.0000288138
H -3.3715350963 1.1673859532 -0.0000801018
H -3.2328899253 -1.3171891638 -0.0000729214
