11
 xtb: 6.7.1 (edcfbbe)
C           -2.84098725045790       -0.57150722801825        0.07352745837019
O           -1.48303441595555       -0.86712718262990        0.47453435594647
C           -0.53566455219498       -0.14765960731901       -0.16874756891284
O           -0.75487180564902        0.68759499914261       -1.00329275340479
C            0.81813637212554       -0.59409658149975        0.35712966655309
Cl           2.17092605324632        0.31355733383555       -0.38101678827696
H           -3.07440120902616        0.47664410900361        0.27514788050450
H           -3.46919495271254       -1.23082691831995        0.67126065341958
H           -2.97083571305047       -0.77165426594577       -0.99276191243434
H            0.95082572851120       -1.65762636312786        0.14371108031902
H            0.84951249188986       -0.45544828004690        1.44040871970910
