11
CONF1
C -2.8012970687 -0.3856628651 -0.0005501005
O -1.3811118270 -0.6829507602 -0.0010747248
C -0.5889311372 0.3884412032 0.0008466402
O -0.9241123043 1.5412294742 0.0029226278
C 0.8919716026 -0.0720558240 -0.0000706345
F 1.7043654281 0.9865248975 0.0010909371
F 1.1585287873 -0.8178182552 1.0906633003
F 1.1582314234 -0.8151611526 -1.0926811848
H -3.2963484761 -1.3549421607 -0.0137442471
H -3.0583043173 0.1994043363 -0.8863310817
H -3.0619600972 0.1764036822 0.8990422320
11
CONF2
C -2.7297055858 0.7958510516 -0.1216691115
O -1.2822839752 0.9023885391 -0.1602348536
C -0.6412504669 -0.2423989709 0.0660148086
O -1.1295053591 -1.3166667905 0.2917276244
C 0.8965469225 -0.0533431324 -0.0008778126
F 1.2713725841 1.2198833025 -0.1905000165
F 1.4453355024 -0.4902552343 1.1456897575
F 1.3859333288 -0.7935155955 -1.0131497484
H -3.0496690095 0.4591741475 0.8668286728
H -3.0693707206 0.0856337070 -0.8785832188
H -3.0950756143 1.7993680002 -0.3318916382
