14
CONF1
C 2.1946491797 0.4524851501 0.1345831394
C 1.2221429069 -0.6184980785 -0.3438162324
C -0.1247084312 -0.5485171733 0.3646892196
H 0.0182960805 -0.5134488088 1.4482498022
C -1.0459725123 -1.6944033349 -0.0151428553
Cl -0.9379838264 0.9987877805 -0.0562863372
H 3.1391901284 0.3682462143 -0.3967823539
H 2.3871091635 0.3456545200 1.2000515900
H 1.7854738062 1.4435257209 -0.0437935633
H 1.6471566398 -1.6076386254 -0.1549565672
H 1.0649493253 -0.5194667445 -1.4196954501
H -1.2041950700 -1.7132810801 -1.0910442991
H -0.6003374430 -2.6391154494 0.2901848530
H -2.0105371070 -1.5900374863 0.4755712959
14
CONF3
C 1.9766258504 0.0059413446 -0.6515431040
C 1.2681017947 -0.3465071536 0.6510938382
C -0.2399722910 -0.5328423484 0.5078681961
H -0.6685515098 -0.7652415553 1.4873390428
C -0.6441700159 -1.5932555268 -0.5005110393
Cl -0.9901658332 1.0312779433 0.0327032025
H 1.5124585421 0.8757122407 -1.1094208731
H 1.9409607749 -0.8218042061 -1.3547628307
H 3.0199894365 0.2378252619 -0.4529526902
H 1.4491032735 0.4440039526 1.3825041148
H 1.6803884432 -1.2748051931 1.0550981745
H -0.3388554410 -1.3093426302 -1.5036156039
H -0.1738514568 -2.5396538189 -0.2408245388
H -1.7232009609 -1.7271379591 -0.4960241026
14
CONF2
C 2.4733206395 -0.5120944306 0.2036974298
C 1.2459997291 0.2136816263 -0.3383334422
C -0.0334417991 -0.1895773153 0.3860016615
H 0.0670358372 -0.0095542593 1.4599952376
C -0.4616906803 -1.6218260308 0.1253923100
Cl -1.3550068651 0.9055995011 -0.1570805647
H 3.3698332714 -0.1282040960 -0.2762882094
H 2.4168605538 -1.5798096285 0.0103447446
H 2.5661725214 -0.3581966127 1.2765090394
H 1.1343076886 0.0067026574 -1.4045190808
H 1.3883249619 1.2899343806 -0.2206896818
H -1.4203238451 -1.8229418560 0.5973767305
H -0.5563909901 -1.8014423759 -0.9431297799
H 0.2745189758 -2.3086792299 0.5359575180
