13
CONF1
C 0.0001503608 -2.5159354225 0.0003485754
C 1.2109918262 -1.8332035270 0.0003105512
C 1.2059636907 -0.4459666610 0.0000935275
C 0.0001456873 0.2789014026 -0.0001706392
C -1.2057087496 -0.4459460023 0.0001398325
C -1.2107137638 -1.8332124621 0.0003595411
Cl -2.7125729211 0.4155990215 -0.0000229491
C 0.0004430316 1.6977582100 -0.0017687714
N -0.0013909479 2.8552852264 0.0018744724
Cl 2.7127231994 0.4157191087 -0.0001158777
H 0.0001452907 -3.6005604952 0.0003382175
H 2.1539038423 -2.3658029168 0.0002671743
H -2.1536351261 -2.3658404785 0.0003512946
