 xtb: 6.7.1 (edcfbbe)
          04152520263D

 10  9  0     0  0            999 V2000
    1.8572    0.2014    0.2073 C   0  0  0  0  0  0  0  0  0  0  0  0
    0.7173   -0.1177   -0.3743 C   0  0  0  0  0  0  0  0  0  0  0  0
   -0.5592   -0.4125    0.3564 C   0  0  0  0  0  0  0  0  0  0  0  0
   -1.6629    0.3082   -0.1458 O   0  0  0  0  0  0  0  0  0  0  0  0
    2.7528    0.3913   -0.3593 H   0  0  0  0  0  0  0  0  0  0  0  0
    1.9427    0.2781    1.2785 H   0  0  0  0  0  0  0  0  0  0  0  0
    0.6508   -0.1852   -1.4543 H   0  0  0  0  0  0  0  0  0  0  0  0
   -0.4760   -0.1335    1.4085 H   0  0  0  0  0  0  0  0  0  0  0  0
   -0.7609   -1.4965    0.2990 H   0  0  0  0  0  0  0  0  0  0  0  0
   -1.7221    0.1612   -1.0966 H   0  0  0  0  0  0  0  0  0  0  0  0
  1  2  2  0  0  0  0
  2  3  1  0  0  0  0
  3  4  1  0  0  0  0
  1  5  1  0  0  0  0
  1  6  1  0  0  0  0
  2  7  1  0  0  0  0
  3  8  1  0  0  0  0
  3  9  1  0  0  0  0
  4 10  1  0  0  0  0
M  END
