 xtb: 6.7.1 (edcfbbe)
          04152520143D

 17 16  0     0  0            999 V2000
    1.7749    0.8709    0.6880 C   0  0  0  0  0  0  0  0  0  0  0  0
    1.2586    0.0783   -0.5081 C   0  0  0  0  0  0  0  0  0  0  0  0
    1.4865   -1.4204   -0.3430 C   0  0  0  0  0  0  0  0  0  0  0  0
   -0.1255    0.3744   -0.7777 O   0  0  0  0  0  0  0  0  0  0  0  0
   -1.0697    0.0838    0.1181 C   0  0  0  0  0  0  0  0  0  0  0  0
   -0.8823   -0.4171    1.1954 O   0  0  0  0  0  0  0  0  0  0  0  0
   -2.4293    0.4596   -0.4199 C   0  0  0  0  0  0  0  0  0  0  0  0
    1.5619    1.9296    0.5570 H   0  0  0  0  0  0  0  0  0  0  0  0
    1.2985    0.5251    1.6012 H   0  0  0  0  0  0  0  0  0  0  0  0
    2.8494    0.7361    0.7750 H   0  0  0  0  0  0  0  0  0  0  0  0
    1.7540    0.4274   -1.4225 H   0  0  0  0  0  0  0  0  0  0  0  0
    2.5528   -1.6200   -0.2844 H   0  0  0  0  0  0  0  0  0  0  0  0
    1.0733   -1.9590   -1.1931 H   0  0  0  0  0  0  0  0  0  0  0  0
    1.0087   -1.7748    0.5663 H   0  0  0  0  0  0  0  0  0  0  0  0
   -3.0872    0.7208    0.4035 H   0  0  0  0  0  0  0  0  0  0  0  0
   -2.8460   -0.4031   -0.9364 H   0  0  0  0  0  0  0  0  0  0  0  0
   -2.3428    1.2815   -1.1233 H   0  0  0  0  0  0  0  0  0  0  0  0
  1  2  1  0  0  0  0
  2  3  1  0  0  0  0
  2  4  1  0  0  0  0
  4  5  1  0  0  0  0
  5  6  2  0  0  0  0
  5  7  1  0  0  0  0
  1  8  1  0  0  0  0
  1  9  1  0  0  0  0
  1 10  1  0  0  0  0
  2 11  1  0  0  0  0
  3 12  1  0  0  0  0
  3 13  1  0  0  0  0
  3 14  1  0  0  0  0
  7 15  1  0  0  0  0
  7 16  1  0  0  0  0
  7 17  1  0  0  0  0
M  END
