 xtb: 6.7.1 (edcfbbe)
          04152519393D

 19 19  0     0  0            999 V2000
   -2.9784    0.6069    0.7687 C   0  0  0  0  0  0  0  0  0  0  0  0
   -2.2725    0.3432   -0.5630 C   0  0  0  0  0  0  0  0  0  0  0  0
   -0.8522   -0.0870   -0.3288 C   0  0  0  0  0  0  0  0  0  0  0  0
   -0.5387   -1.4262   -0.1407 C   0  0  0  0  0  0  0  0  0  0  0  0
    0.7660   -1.8106    0.1166 C   0  0  0  0  0  0  0  0  0  0  0  0
    1.7743   -0.8700    0.1921 C   0  0  0  0  0  0  0  0  0  0  0  0
    1.4708    0.4746    0.0072 C   0  0  0  0  0  0  0  0  0  0  0  0
    0.1614    0.8574   -0.2505 C   0  0  0  0  0  0  0  0  0  0  0  0
    2.4841    1.3818    0.0853 O   0  0  0  0  0  0  0  0  0  0  0  0
   -2.9799   -0.2930    1.3793 H   0  0  0  0  0  0  0  0  0  0  0  0
   -4.0077    0.9154    0.6002 H   0  0  0  0  0  0  0  0  0  0  0  0
   -2.4659    1.3919    1.3203 H   0  0  0  0  0  0  0  0  0  0  0  0
   -2.2915    1.2528   -1.1670 H   0  0  0  0  0  0  0  0  0  0  0  0
   -2.8093   -0.4374   -1.1054 H   0  0  0  0  0  0  0  0  0  0  0  0
   -1.3195   -2.1702   -0.1993 H   0  0  0  0  0  0  0  0  0  0  0  0
    1.0010   -2.8550    0.2591 H   0  0  0  0  0  0  0  0  0  0  0  0
    2.7960   -1.1514    0.3900 H   0  0  0  0  0  0  0  0  0  0  0  0
   -0.0696    1.9061   -0.3952 H   0  0  0  0  0  0  0  0  0  0  0  0
    2.1374    2.2699   -0.0627 H   0  0  0  0  0  0  0  0  0  0  0  0
  1  2  1  0  0  0  0
  2  3  1  0  0  0  0
  3  4  4  0  0  0  0
  4  5  4  0  0  0  0
  5  6  4  0  0  0  0
  6  7  4  0  0  0  0
  3  8  4  0  0  0  0
  7  8  4  0  0  0  0
  7  9  1  0  0  0  0
  1 10  1  0  0  0  0
  1 11  1  0  0  0  0
  1 12  1  0  0  0  0
  2 13  1  0  0  0  0
  2 14  1  0  0  0  0
  4 15  1  0  0  0  0
  5 16  1  0  0  0  0
  6 17  1  0  0  0  0
  8 18  1  0  0  0  0
  9 19  1  0  0  0  0
M  END
