12
CONF1
C -2.1853469109 -0.0318738583 -0.0037881144
C -0.6973792867 -0.0364913721 -0.0027208610
C 0.1490169625 -1.1164614702 0.0175982316
N 1.4251993689 -0.5944250559 0.0083545564
C 1.3093257752 0.7557934637 -0.0168367819
N 0.0416468032 1.1362903778 -0.0241286483
H -2.5801810885 0.4634054619 -0.8975394324
H -2.5720446027 -1.0534089967 0.0187277743
H -2.5812360879 0.5027876315 0.8664600697
H -0.0364012303 -2.1797037938 0.0371778782
H 2.2884025991 -1.1181089194 0.0182161512
H 2.1708286728 1.4098083957 -0.0285718884
