 xtb: 6.7.1 (edcfbbe)
          04152519523D

 15 15  0     0  0            999 V2000
   -2.3327   -0.5824    0.0140 C   0  0  0  0  0  0  0  0  0  0  0  0
   -0.9147   -0.6294    0.0198 O   0  0  0  0  0  0  0  0  0  0  0  0
   -0.2897    0.5581   -0.0554 C   0  0  0  0  0  0  0  0  0  0  0  0
   -0.8776    1.6082   -0.1230 O   0  0  0  0  0  0  0  0  0  0  0  0
    1.1856    0.4277   -0.0454 C   0  0  0  0  0  0  0  0  0  0  0  0
    1.8399   -0.6650    0.7641 C   0  0  0  0  0  0  0  0  0  0  0  0
    1.8414   -0.7528   -0.7193 C   0  0  0  0  0  0  0  0  0  0  0  0
   -2.6942   -0.1399   -0.9165 H   0  0  0  0  0  0  0  0  0  0  0  0
   -2.6963    0.0180    0.8504 H   0  0  0  0  0  0  0  0  0  0  0  0
   -2.6717   -1.6113    0.1050 H   0  0  0  0  0  0  0  0  0  0  0  0
    1.6797    1.3886   -0.1021 H   0  0  0  0  0  0  0  0  0  0  0  0
    2.7583   -0.4197    1.2750 H   0  0  0  0  0  0  0  0  0  0  0  0
    1.1891   -1.3288    1.3109 H   0  0  0  0  0  0  0  0  0  0  0  0
    2.7606   -0.5693   -1.2539 H   0  0  0  0  0  0  0  0  0  0  0  0
    1.1915   -1.4765   -1.1853 H   0  0  0  0  0  0  0  0  0  0  0  0
  1  2  1  0  0  0  0
  2  3  1  0  0  0  0
  3  4  2  0  0  0  0
  3  5  1  0  0  0  0
  5  6  1  0  0  0  0
  5  7  1  0  0  0  0
  6  7  1  0  0  0  0
  1  8  1  0  0  0  0
  1  9  1  0  0  0  0
  1 10  1  0  0  0  0
  5 11  1  0  0  0  0
  6 12  1  0  0  0  0
  6 13  1  0  0  0  0
  7 14  1  0  0  0  0
  7 15  1  0  0  0  0
M  END
