18
 xtb: 6.7.1 (edcfbbe)
C           -3.17404248523905        0.16556532535316       -0.00421090517587
O           -1.95770201102222        0.90353923600177        0.00055420314763
C           -0.79026875720864        0.19328317729753       -0.00209256624915
C           -0.71762306909048       -1.20117705449346        0.00157125166436
C            0.54414985955292       -1.79562638297225       -0.00002149122850
C            1.70605149843890       -1.04269434003095       -0.00536470014976
C            1.62421396289657        0.35940183036110       -0.00833943405116
C            0.36986083861061        0.96802618015258       -0.00583577637057
N            2.78429449762571        1.13148108000536       -0.07839076901639
H           -3.97304249878172        0.90844449752309       -0.00540742520549
H           -3.26445855322825       -0.46397204023904        0.89066041560110
H           -3.25850515241645       -0.46081331555725       -0.90182925878056
H           -1.60542020818588       -1.81905207540708        0.00623887407581
H            0.61463736697966       -2.87895207675681        0.00343696835091
H            2.67671878166311       -1.52880099247428       -0.01572769012268
H            0.27164901788027        2.04901545041919       -0.01472253944906
H            2.68643568356097        2.07204880995041        0.27171889850879
H            3.60748777328956        0.68235321352892        0.29213826321637
