 xtb: 6.7.1 (edcfbbe)
          04152520173D

 22 22  0     0  0            999 V2000
    3.3599    0.1208    0.0052 C   0  0  0  0  0  0  0  0  0  0  0  0
    1.9463    0.3627    0.1738 N   0  0  0  0  0  0  0  0  0  0  0  0
    1.6056    1.5979    0.8303 C   0  0  0  0  0  0  0  0  0  0  0  0
    1.0583   -0.5781   -0.2279 C   0  0  0  0  0  0  0  0  0  0  0  0
    1.4068   -1.6479   -0.6943 O   0  0  0  0  0  0  0  0  0  0  0  0
   -0.3930   -0.2343   -0.0889 C   0  0  0  0  0  0  0  0  0  0  0  0
   -1.1983   -0.9962    0.7485 C   0  0  0  0  0  0  0  0  0  0  0  0
   -2.5552   -0.7378    0.8313 C   0  0  0  0  0  0  0  0  0  0  0  0
   -3.1187    0.2685    0.0649 C   0  0  0  0  0  0  0  0  0  0  0  0
   -2.3234    1.0157   -0.7882 C   0  0  0  0  0  0  0  0  0  0  0  0
   -0.9644    0.7680   -0.8656 C   0  0  0  0  0  0  0  0  0  0  0  0
    3.4801   -0.8347   -0.5014 H   0  0  0  0  0  0  0  0  0  0  0  0
    3.8617    0.0830    0.9753 H   0  0  0  0  0  0  0  0  0  0  0  0
    3.8091    0.9144   -0.5963 H   0  0  0  0  0  0  0  0  0  0  0  0
    2.1804    1.6901    1.7560 H   0  0  0  0  0  0  0  0  0  0  0  0
    0.5461    1.6239    1.0720 H   0  0  0  0  0  0  0  0  0  0  0  0
    1.8467    2.4533    0.1914 H   0  0  0  0  0  0  0  0  0  0  0  0
   -0.7536   -1.7891    1.3312 H   0  0  0  0  0  0  0  0  0  0  0  0
   -3.1752   -1.3275    1.4902 H   0  0  0  0  0  0  0  0  0  0  0  0
   -4.1787    0.4661    0.1262 H   0  0  0  0  0  0  0  0  0  0  0  0
   -2.7631    1.7929   -1.3960 H   0  0  0  0  0  0  0  0  0  0  0  0
   -0.3443    1.3448   -1.5368 H   0  0  0  0  0  0  0  0  0  0  0  0
  1  2  1  0  0  0  0
  2  3  1  0  0  0  0
  2  4  4  0  0  0  0
  4  5  2  0  0  0  0
  4  6  1  0  0  0  0
  6  7  4  0  0  0  0
  7  8  4  0  0  0  0
  8  9  4  0  0  0  0
  9 10  4  0  0  0  0
  6 11  4  0  0  0  0
 10 11  4  0  0  0  0
  1 12  1  0  0  0  0
  1 13  1  0  0  0  0
  1 14  1  0  0  0  0
  3 15  1  0  0  0  0
  3 16  1  0  0  0  0
  3 17  1  0  0  0  0
  7 18  1  0  0  0  0
  8 19  1  0  0  0  0
  9 20  1  0  0  0  0
 10 21  1  0  0  0  0
 11 22  1  0  0  0  0
M  END
