12
CONF1
C -0.6927003168 -2.0688263186 -0.0000192258
C 0.6927156854 -2.0688219318 -0.0000109838
C 1.3863367820 -0.8657396191 0.0000124309
C 0.7012068868 0.3523509646 0.0000262620
C -0.7012072422 0.3523465375 0.0000180465
C -1.3863291877 -0.8657484421 -0.0000056612
Cl -3.1279398644 -0.8986464539 -0.0000155333
Cl -1.5711226557 1.8501869751 0.0000279652
Cl 1.5711125622 1.8501972303 0.0000491957
Cl 3.1279476151 -0.8986265015 0.0000264013
H -1.2349027199 -3.0066760893 -0.0000387406
H 1.2349240807 -3.0066682370 -0.0000255050
