 xtb: 6.7.1 (edcfbbe)
          04162511253D

 24 24  0     0  0            999 V2000
   -2.1234   -0.8816   -0.3442 C   0  0  0  0  0  0  0  0  0  0  0  0
   -1.1924   -0.3473    0.7690 C   0  0  0  0  0  0  0  0  0  0  0  0
   -1.7959   -0.4021    1.6892 H   0  0  0  0  0  0  0  0  0  0  0  0
   -0.7729    1.1249    0.5906 C   0  0  0  0  0  0  0  0  0  0  0  0
   -1.6480    1.6993    0.2355 H   0  0  0  0  0  0  0  0  0  0  0  0
    0.3888    1.3079   -0.4065 C   0  0  0  0  0  0  0  0  0  0  0  0
    0.8234    2.2965   -0.2074 H   0  0  0  0  0  0  0  0  0  0  0  0
    1.5130    0.2901   -0.1255 C   0  0  0  0  0  0  0  0  0  0  0  0
    2.1518    0.2218   -1.0120 H   0  0  0  0  0  0  0  0  0  0  0  0
    1.0256   -1.1501    0.1972 C   0  0  0  0  0  0  0  0  0  0  0  0
    1.8255   -1.6215    0.7851 H   0  0  0  0  0  0  0  0  0  0  0  0
   -0.0840   -1.1687    1.0710 O   0  0  0  0  0  0  0  0  0  0  0  0
    0.8654   -1.9388   -0.9248 O   0  0  0  0  0  0  0  0  0  0  0  0
    2.3192    0.7745    0.9153 O   0  0  0  0  0  0  0  0  0  0  0  0
   -0.0477    1.2311   -1.7498 O   0  0  0  0  0  0  0  0  0  0  0  0
   -0.3037    1.6631    1.8080 O   0  0  0  0  0  0  0  0  0  0  0  0
   -1.5785   -0.9854   -1.6306 O   0  0  0  0  0  0  0  0  0  0  0  0
   -3.0178   -0.2402   -0.3576 H   0  0  0  0  0  0  0  0  0  0  0  0
   -2.4257   -1.8952   -0.0688 H   0  0  0  0  0  0  0  0  0  0  0  0
    0.0088   -1.7408   -1.3566 H   0  0  0  0  0  0  0  0  0  0  0  0
    1.7506    0.9421    1.6808 H   0  0  0  0  0  0  0  0  0  0  0  0
   -0.3595    2.0944   -2.0397 H   0  0  0  0  0  0  0  0  0  0  0  0
   -0.9049    1.4258    2.5235 H   0  0  0  0  0  0  0  0  0  0  0  0
   -1.1558   -0.1415   -1.8827 H   0  0  0  0  0  0  0  0  0  0  0  0
  1  2  1  0  0  0  0
  2  3  1  0  0  0  0
  2  4  1  0  0  0  0
  4  5  1  0  0  0  0
  4  6  1  0  0  0  0
  6  7  1  0  0  0  0
  6  8  1  0  0  0  0
  8  9  1  0  0  0  0
  8 10  1  0  0  0  0
 10 11  1  0  0  0  0
  2 12  1  0  0  0  0
 10 12  1  0  0  0  0
 10 13  1  0  0  0  0
  8 14  1  0  0  0  0
  6 15  1  0  0  0  0
  4 16  1  0  0  0  0
  1 17  1  0  0  0  0
  1 18  1  0  0  0  0
  1 19  1  0  0  0  0
 13 20  1  0  0  0  0
 14 21  1  0  0  0  0
 15 22  1  0  0  0  0
 16 23  1  0  0  0  0
 17 24  1  0  0  0  0
M  END
