19
CONF1
C -3.2094944619 0.0051112842 0.8440653054
C -2.4871235591 -0.0067744506 -0.5080460685
C -0.9892383755 -0.0049093648 -0.3461807849
C -0.2772908703 1.1943472657 -0.2393965699
C 1.0980619267 1.2081002450 -0.0325843495
C 1.7872928935 0.0014972366 0.0736815524
C 1.1028042121 -1.2083701245 -0.0289608933
C -0.2740521287 -1.2005924069 -0.2362823361
O 3.1516064286 0.0606368699 0.2760648467
H -2.9380351315 0.8953836392 1.4214761702
H -2.9389727680 -0.8757461815 1.4361546956
H -4.2960499812 0.0046512242 0.7089046830
H -2.7931234126 0.8702024913 -1.0894175917
H -2.7927593000 -0.8939301649 -1.0738590820
H -0.8083889681 2.1392525303 -0.3220962006
H 1.6422379920 2.1443241066 0.0430340098
H 1.6460821895 -2.1464528628 0.0482406752
H -0.8009559302 -2.1480848559 -0.3162280501
H 3.4987477039 -0.8405718572 0.3294971744
