19
CONF1
C -3.2118318048 -0.0099045777 0.8465048933
C -2.4866277558 0.0115239130 -0.5053752605
C -0.9883366898 0.0091991539 -0.3447661939
C -0.2759050531 -1.1890117242 -0.2407125461
C 1.0970779035 -1.2052995450 -0.0349772598
C 1.7901270190 -0.0015575993 0.0738412380
C 1.1033650716 1.2066489574 -0.0289931492
C -0.2725606794 1.2019093388 -0.2357295928
O 3.1437813101 -0.0694394340 0.2760756754
H -2.9360979763 -0.9013952871 1.4186718654
H -4.2984928149 -0.0093117587 0.7139694375
H -2.9380782891 0.8648513258 1.4448881626
H -2.7938909752 0.8997154738 -1.0695851483
H -2.7929467759 -0.8591387776 -1.0968676460
H -0.8076205729 -2.1333717344 -0.3259652409
H 1.6451104046 -2.1381339039 0.0393659386
H 1.6403316781 2.1492412134 0.0472343602
H -0.7978089801 2.1502180587 -0.3162546410
H 3.4965816823 0.8254318662 0.3318395649
