5
 xtb: 6.7.1 (edcfbbe)
C            0.00003499190563        0.98328887250783        0.00000561180150
Br          -1.63282530308323       -0.08128104970983        0.00000127705916
Br           1.63285313572738       -0.08131429588157       -0.00001587906220
H            0.00003886080478        1.58360269007094        0.90474584317932
H            0.00001243635005        1.58379799808506       -0.90460356649473
