12
 xtb: 6.7.1 (edcfbbe)
C            2.42089607273811        0.03970314651803        0.08954846718012
C            0.99634858985535        0.42935024250036       -0.29170699494691
C           -0.03500948108909       -0.48955641514751        0.38831676464736
C           -1.40315904950229       -0.14038668066518        0.04111597745203
N           -2.48049368426024        0.15833019149070       -0.25044859038198
H            2.57535849373395        0.11334353129748        1.17116837960770
H            2.64438264404397       -0.98868614021690       -0.21318676298225
H            3.14652097886359        0.69670519676482       -0.39734061707431
H            0.79244317025825        1.46541044646806       -0.00237880529564
H            0.86106834309538        0.37135585560153       -1.37664815418154
H            0.06974295413401       -0.43695673596321        1.47881501898604
H            0.13930974789643       -1.53376822900767        0.10178535328667
