 xtb: 6.7.1 (edcfbbe)
          04152519543D

 10  9  0     0  0            999 V2000
    1.8275   -0.1173    0.0000 C   0  0  0  0  0  0  0  0  0  0  0  0
    0.6035    0.3990    0.0000 C   0  0  0  0  0  0  0  0  0  0  0  0
   -0.6035   -0.3990    0.0000 C   0  0  0  0  0  0  0  0  0  0  0  0
   -1.8275    0.1173    0.0000 C   0  0  0  0  0  0  0  0  0  0  0  0
    2.7092    0.5003    0.0000 H   0  0  0  0  0  0  0  0  0  0  0  0
    1.9897   -1.1831    0.0000 H   0  0  0  0  0  0  0  0  0  0  0  0
    0.4640    1.4725    0.0000 H   0  0  0  0  0  0  0  0  0  0  0  0
   -0.4640   -1.4725    0.0000 H   0  0  0  0  0  0  0  0  0  0  0  0
   -2.7092   -0.5003    0.0000 H   0  0  0  0  0  0  0  0  0  0  0  0
   -1.9897    1.1830    0.0001 H   0  0  0  0  0  0  0  0  0  0  0  0
  1  2  2  0  0  0  0
  2  3  1  0  0  0  0
  3  4  2  0  0  0  0
  1  5  1  0  0  0  0
  1  6  1  0  0  0  0
  2  7  1  0  0  0  0
  3  8  1  0  0  0  0
  4  9  1  0  0  0  0
  4 10  1  0  0  0  0
M  END
