11
CONF1
C -1.1748077049 -1.2653839857 -0.1325387992
C -0.5481507650 -0.0000102369 0.4034259494
C -1.1749330439 1.2653004766 -0.1325414951
Cl 1.2697200441 0.0000778348 -0.0502062594
H -2.2258744738 -1.2864778330 0.1777786039
H -1.1397234235 -1.2887674779 -1.2256301438
H -0.6842890984 -2.1583527840 0.2615465530
H -0.5328057848 -0.0000084660 1.4953033196
H -1.1398438062 1.2886884257 -1.2256324072
H -0.6845063463 2.1583181388 0.2615467141
H -2.2260039148 1.2862874717 0.1777696992
