27
 xtb: 6.7.1 (edcfbbe)
C           -3.41024999859482       -0.54222849604199       -0.06503717012217
C           -1.93174279121999       -0.45445411986195       -0.41283421915927
H           -1.79547900926073       -0.57724874211431       -1.49988152723469
C           -1.09418850505273       -1.55357449068592        0.27368067350801
C            0.39416676280610       -1.44360322759544       -0.05285415150067
C            0.94640890000941       -0.06982932732071        0.36124677584837
H            0.77869334567346        0.03937411410877        1.44158439734365
C            0.14454801750591        1.04635250819014       -0.34707872721990
C           -1.33791927635172        0.90485973808791       -0.06759270183585
O           -1.99419788943457        1.80243759818855        0.42045792831042
C            2.43479058012968        0.05626525145224        0.12260961289497
C            3.28604790674067        0.10633013513560        1.14902528643589
C            2.91264759833451        0.11847965879685       -1.30135767484624
H           -3.81145070971671       -1.52060023574215       -0.34659971026424
H           -3.55844854400717       -0.40081768094092        1.00935113703513
H           -3.98310959218952        0.23437737640720       -0.57683595645125
H           -1.24037764809229       -1.47679005723119        1.36011157049982
H           -1.48010747919511       -2.53463796430147       -0.02655155152071
H            0.95584088944176       -2.23001962945060        0.46351086029269
H            0.54322445310066       -1.59479830279398       -1.13022233072100
H            0.47492912494685        2.03869910077019       -0.02879334132000
H            0.29266684833277        0.95925485474521       -1.43244909137855
H            4.35844552507979        0.17757315900105        0.99406855572269
H            2.93507770026005        0.07972969522824        2.17643278586331
H            2.51332798528052       -0.70814604635271       -1.89966562087102
H            2.58754858284418        1.04731795771844       -1.78467863427764
H            4.00294364258083        0.07951625453619       -1.35017472563656
