 xtb: 6.7.1 (edcfbbe)
          04162511253D

 24 24  0     0  0            999 V2000
   -2.1181   -0.9239   -0.2749 C   0  0  0  0  0  0  0  0  0  0  0  0
   -1.1595   -0.3435    0.7846 C   0  0  0  0  0  0  0  0  0  0  0  0
   -1.7004   -0.3518    1.7391 H   0  0  0  0  0  0  0  0  0  0  0  0
   -0.7590    1.1205    0.5312 C   0  0  0  0  0  0  0  0  0  0  0  0
   -1.6352    1.6450    0.1194 H   0  0  0  0  0  0  0  0  0  0  0  0
    0.4157    1.2893   -0.4555 C   0  0  0  0  0  0  0  0  0  0  0  0
    0.8463    2.2907   -0.2984 H   0  0  0  0  0  0  0  0  0  0  0  0
    1.5449    0.2976   -0.0874 C   0  0  0  0  0  0  0  0  0  0  0  0
    2.2668    0.2576   -0.9083 H   0  0  0  0  0  0  0  0  0  0  0  0
    1.0533   -1.1349    0.1875 C   0  0  0  0  0  0  0  0  0  0  0  0
    1.8504   -1.6444    0.7495 H   0  0  0  0  0  0  0  0  0  0  0  0
   -0.0509   -1.1970    1.0435 O   0  0  0  0  0  0  0  0  0  0  0  0
    0.8232   -1.8138   -1.0274 O   0  0  0  0  0  0  0  0  0  0  0  0
    2.2311    0.7611    1.0466 O   0  0  0  0  0  0  0  0  0  0  0  0
    0.0275    1.2663   -1.7921 O   0  0  0  0  0  0  0  0  0  0  0  0
   -0.4192    1.6531    1.7991 O   0  0  0  0  0  0  0  0  0  0  0  0
   -1.6513   -0.8827   -1.5979 O   0  0  0  0  0  0  0  0  0  0  0  0
   -3.0458   -0.3474   -0.2604 H   0  0  0  0  0  0  0  0  0  0  0  0
   -2.3437   -1.9583    0.0181 H   0  0  0  0  0  0  0  0  0  0  0  0
    0.7550   -2.7599   -0.8501 H   0  0  0  0  0  0  0  0  0  0  0  0
    1.5866    0.8432    1.7674 H   0  0  0  0  0  0  0  0  0  0  0  0
   -0.6166    0.5468   -1.9390 H   0  0  0  0  0  0  0  0  0  0  0  0
   -0.2238    2.5929    1.7049 H   0  0  0  0  0  0  0  0  0  0  0  0
   -0.8019   -1.3687   -1.6356 H   0  0  0  0  0  0  0  0  0  0  0  0
  1  2  1  0  0  0  0
  2  3  1  0  0  0  0
  2  4  1  0  0  0  0
  4  5  1  0  0  0  0
  4  6  1  0  0  0  0
  6  7  1  0  0  0  0
  6  8  1  0  0  0  0
  8  9  1  0  0  0  0
  8 10  1  0  0  0  0
 10 11  1  0  0  0  0
  2 12  1  0  0  0  0
 10 12  1  0  0  0  0
 10 13  1  0  0  0  0
  8 14  1  0  0  0  0
  6 15  1  0  0  0  0
  4 16  1  0  0  0  0
  1 17  1  0  0  0  0
  1 18  1  0  0  0  0
  1 19  1  0  0  0  0
 13 20  1  0  0  0  0
 14 21  1  0  0  0  0
 15 22  1  0  0  0  0
 16 23  1  0  0  0  0
 17 24  1  0  0  0  0
M  END
