26
 xtb: 6.7.1 (edcfbbe)
C           -3.24796893130113       -0.58200086320245        1.76070167627465
N           -2.28632743459126       -0.04098718953620        0.81606412974874
C           -2.35634355003119       -0.32583287676816       -0.50845118388870
O           -3.20930441170625       -0.98191957413320       -1.05551969530054
O           -1.33996187633128        0.22879062943638       -1.28427288657072
C           -0.22264157699148        0.78812896010487       -0.68137901785654
C           -0.13992512258983        2.15250469314484       -0.54841780711120
C            1.01762289497114        2.73048579082217        0.01240518131461
C            2.06013215663035        1.93965624327656        0.42957188097624
C            1.99779233891933        0.53121126561408        0.29857520311624
C            0.83326433739837       -0.06958600866191       -0.27624990602965
C            0.77131364464034       -1.47457209927131       -0.42228473286640
C            1.82009277472179       -2.25902276087157       -0.00641889835942
C            2.96888025327546       -1.67487397146012        0.56714866004332
C            3.05620895011940       -0.31197977593548        0.71349553516493
H           -4.01159188746802       -1.11814152408133        1.19526802622334
H           -3.72688208685339        0.22164014243492        2.33026488846725
H           -2.76944987112901       -1.27776605045711        2.45946899192356
H           -1.51696076508183        0.51252539932574        1.15799236447081
H           -0.96848834002378        2.76639019623992       -0.88494251683381
H            1.07718971611244        3.80929157310454        0.11043613000634
H            2.95016277018550        2.38568798345952        0.86292584808884
H           -0.10667302545118       -1.91996737073461       -0.87744750953253
H            1.76865166026367       -3.33631488195180       -0.12504691889206
H            3.78891946256950       -2.30891207317996        0.88821140485524
H            3.94292046257290        0.13988919125444        1.14847719071192
