10
CONF1
C -0.9873693374 0.7115340741 0.0000670230
C -0.9867377256 -0.7124099129 0.0001369568
C 0.3308893879 -1.1228564341 0.0000939238
N 1.1173043401 0.0004934027 0.0000908474
C 0.3298942281 1.1231478440 0.0000590871
H -1.8524457023 1.3597357814 0.0000533985
H -1.8512393680 -1.3613817729 0.0001669254
H 0.7665712622 -2.1114201370 0.0001110670
H 2.1256140308 0.0009416951 0.0000512421
H 0.7647021864 2.1120966187 0.0000345497
