10
CONF1
C -0.9829544117 0.7104914876 0.0000237805
C -0.9831075295 -0.7102987054 -0.0000363034
C 0.3300862731 -1.1243545913 0.0000528419
N 1.1183706953 -0.0001266597 0.0001265751
C 0.3303274358 1.1242678750 0.0001325355
H -1.8473822863 1.3571305433 -0.0000338149
H -1.8476718996 -1.3567533366 -0.0001451404
H 0.7624821064 -2.1133157378 0.0000257479
H 2.1228475365 -0.0002471542 0.0004062308
H 0.7629239977 2.1131408383 0.0002028894
