 xtb: 6.7.1 (edcfbbe)
          04162510213D

 31 31  0     0  0            999 V2000
    3.7237   -0.1831   -0.0481 C   0  0  0  0  0  0  0  0  0  0  0  0
    2.2470   -0.3291    0.3084 C   0  0  0  0  0  0  0  0  0  0  0  0
    2.1651   -0.5474    1.3791 H   0  0  0  0  0  0  0  0  0  0  0  0
    1.6007   -1.4725   -0.4714 C   0  0  0  0  0  0  0  0  0  0  0  0
    0.1207   -1.5967   -0.1250 C   0  0  0  0  0  0  0  0  0  0  0  0
   -0.6438   -0.3019   -0.4219 C   0  0  0  0  0  0  0  0  0  0  0  0
   -0.5143   -0.0740   -1.4888 H   0  0  0  0  0  0  0  0  0  0  0  0
   -0.0001    0.8438    0.3792 C   0  0  0  0  0  0  0  0  0  0  0  0
   -0.0896    0.6384    1.4500 H   0  0  0  0  0  0  0  0  0  0  0  0
    1.4858    0.9621    0.0185 C   0  0  0  0  0  0  0  0  0  0  0  0
   -0.6487    2.0848    0.1975 O   0  0  0  0  0  0  0  0  0  0  0  0
   -2.1577   -0.4921   -0.1757 C   0  0  0  0  0  0  0  0  0  0  0  0
   -2.5411   -0.4298    1.3010 C   0  0  0  0  0  0  0  0  0  0  0  0
   -2.9965    0.5161   -0.9617 C   0  0  0  0  0  0  0  0  0  0  0  0
    4.2618   -1.1023    0.1720 H   0  0  0  0  0  0  0  0  0  0  0  0
    3.8398    0.0361   -1.1076 H   0  0  0  0  0  0  0  0  0  0  0  0
    4.1769    0.6253    0.5210 H   0  0  0  0  0  0  0  0  0  0  0  0
    1.7109   -1.2851   -1.5425 H   0  0  0  0  0  0  0  0  0  0  0  0
    2.1106   -2.4111   -0.2442 H   0  0  0  0  0  0  0  0  0  0  0  0
   -0.3191   -2.4151   -0.6995 H   0  0  0  0  0  0  0  0  0  0  0  0
    0.0206   -1.8424    0.9340 H   0  0  0  0  0  0  0  0  0  0  0  0
    1.5761    1.2042   -1.0455 H   0  0  0  0  0  0  0  0  0  0  0  0
    1.9161    1.7900    0.5864 H   0  0  0  0  0  0  0  0  0  0  0  0
   -0.5618    2.3333   -0.7301 H   0  0  0  0  0  0  0  0  0  0  0  0
   -2.4083   -1.4932   -0.5500 H   0  0  0  0  0  0  0  0  0  0  0  0
   -1.9445   -1.1188    1.8938 H   0  0  0  0  0  0  0  0  0  0  0  0
   -3.5881   -0.7002    1.4203 H   0  0  0  0  0  0  0  0  0  0  0  0
   -2.4044    0.5777    1.6841 H   0  0  0  0  0  0  0  0  0  0  0  0
   -4.0534    0.2780   -0.8613 H   0  0  0  0  0  0  0  0  0  0  0  0
   -2.7432    0.4924   -2.0202 H   0  0  0  0  0  0  0  0  0  0  0  0
   -2.8358    1.5208   -0.5813 H   0  0  0  0  0  0  0  0  0  0  0  0
  1  2  1  0  0  0  0
  2  3  1  0  0  0  0
  2  4  1  0  0  0  0
  4  5  1  0  0  0  0
  5  6  1  0  0  0  0
  6  7  1  0  0  0  0
  6  8  1  0  0  0  0
  8  9  1  0  0  0  0
  2 10  1  0  0  0  0
  8 10  1  0  0  0  0
  8 11  1  0  0  0  0
  6 12  1  0  0  0  0
 12 13  1  0  0  0  0
 12 14  1  0  0  0  0
  1 15  1  0  0  0  0
  1 16  1  0  0  0  0
  1 17  1  0  0  0  0
  4 18  1  0  0  0  0
  4 19  1  0  0  0  0
  5 20  1  0  0  0  0
  5 21  1  0  0  0  0
 10 22  1  0  0  0  0
 10 23  1  0  0  0  0
 11 24  1  0  0  0  0
 12 25  1  0  0  0  0
 13 26  1  0  0  0  0
 13 27  1  0  0  0  0
 13 28  1  0  0  0  0
 14 29  1  0  0  0  0
 14 30  1  0  0  0  0
 14 31  1  0  0  0  0
M  END
