15
 xtb: 6.7.1 (edcfbbe)
C           -2.21227719373803        0.29768539189895        0.28054608310607
C           -1.00279753446488        0.17273686538297       -0.65597867279357
C            0.00378575850379       -0.80776581350938       -0.13591656605636
C            1.27041803534300       -0.57556808910358        0.21768884832666
C            2.01230759653059        0.72311882015596        0.16689069697330
H           -2.68963079848239       -0.67582749603468        0.43330321109878
H           -2.96219245219390        0.98007271838072       -0.13131632038806
H           -1.90461240774875        0.67441847063915        1.26064429711475
H           -1.35158841109863       -0.16527954750439       -1.64153215813634
H           -0.55206277286435        1.15762433719620       -0.80911977867287
H           -0.36935258027169       -1.82624087024708       -0.02260892012923
H            1.84870104821158       -1.42161459095790        0.58789063459445
H            2.88649832857453        0.64386277000870       -0.49017443433615
H            2.39303701711132        0.98804073433617        1.16028975840347
H            1.39804052189169        1.55149311782726       -0.18999917610135
