26
 xtb: 6.7.1 (edcfbbe)
C           -4.43792802989054       -1.26842633518105       -0.34450861260977
N           -3.31897331885193       -0.78134293608839        0.44030375688611
C           -2.24026739765752       -0.19142574732093       -0.13311018326839
O           -2.02102051756046       -0.06344865364757       -1.31445524987488
O           -1.39274213496435        0.25583505827335        0.87287552869153
C           -0.18460184927886        0.81128620869146        0.45501370479642
C           -0.07949232863896        2.17214471302948        0.34826904559004
C            1.15777100027103        2.74959376900483       -0.00068155508400
C            2.25485819864195        1.95765209001057       -0.23395095457184
C            2.16467231812591        0.54924574622025       -0.12837121627854
C            0.91413470917290       -0.04972589714380        0.22422145146092
C            0.82385756277361       -1.45632720687572        0.33190588110946
C            1.92552112347813       -2.24311946427910        0.09850791345438
C            3.16162312659424       -1.65915922685362       -0.24938245065349
C            3.27690436110996       -0.29521008595388       -0.35954137872318
H           -4.65856002436595       -2.31332899408792       -0.10108563476463
H           -4.16329041415171       -1.20294339617778       -1.39862038883036
H           -5.33948791838869       -0.66669086421173       -0.17789604594565
H           -3.37778030943913       -0.76429297511696        1.44487120025096
H           -0.95278525668414        2.78840325079952        0.53088275673594
H            1.23380915322651        3.82849406934103       -0.08550724335162
H            3.20841096301185        2.40181473103725       -0.50323150550184
H           -0.12578355843473       -1.90531827327193        0.60071526900266
H            1.84742960537863       -3.32229102625647        0.18137219761320
H            4.02308998074493       -2.29396211739254       -0.42993807094364
H            4.22708263629215        0.15784986996772       -0.62749078922956
