 xtb: 6.7.1 (edcfbbe)
          04152519373D

 26 25  0     0  0            999 V2000
   -2.3862    1.2189    0.3203 C   0  0  0  0  0  0  0  0  0  0  0  0
   -1.4250    0.1383   -0.1746 C   0  0  0  0  0  0  0  0  0  0  0  0
   -2.1482   -1.2071   -0.2178 C   0  0  0  0  0  0  0  0  0  0  0  0
   -0.1748    0.0758    0.7228 C   0  0  0  0  0  0  0  0  0  0  0  0
    1.1851   -0.0199    0.0053 C   0  0  0  0  0  0  0  0  0  0  0  0
    1.2436   -1.2290   -0.9297 C   0  0  0  0  0  0  0  0  0  0  0  0
    1.4661    1.2586   -0.7882 C   0  0  0  0  0  0  0  0  0  0  0  0
    2.2711   -0.1764    1.0761 C   0  0  0  0  0  0  0  0  0  0  0  0
   -2.6978    1.0108    1.3421 H   0  0  0  0  0  0  0  0  0  0  0  0
   -1.9108    2.1972    0.2965 H   0  0  0  0  0  0  0  0  0  0  0  0
   -3.2751    1.2565   -0.3064 H   0  0  0  0  0  0  0  0  0  0  0  0
   -1.1302    0.3990   -1.1949 H   0  0  0  0  0  0  0  0  0  0  0  0
   -1.4862   -1.9964   -0.5631 H   0  0  0  0  0  0  0  0  0  0  0  0
   -2.5117   -1.4720    0.7734 H   0  0  0  0  0  0  0  0  0  0  0  0
   -3.0022   -1.1591   -0.8909 H   0  0  0  0  0  0  0  0  0  0  0  0
   -0.1460    0.9698    1.3498 H   0  0  0  0  0  0  0  0  0  0  0  0
   -0.2690   -0.7802    1.3948 H   0  0  0  0  0  0  0  0  0  0  0  0
    1.0397   -2.1459   -0.3809 H   0  0  0  0  0  0  0  0  0  0  0  0
    2.2343   -1.3118   -1.3726 H   0  0  0  0  0  0  0  0  0  0  0  0
    0.5212   -1.1385   -1.7364 H   0  0  0  0  0  0  0  0  0  0  0  0
    0.7301    1.4080   -1.5739 H   0  0  0  0  0  0  0  0  0  0  0  0
    2.4482    1.2050   -1.2535 H   0  0  0  0  0  0  0  0  0  0  0  0
    1.4458    2.1263   -0.1323 H   0  0  0  0  0  0  0  0  0  0  0  0
    2.2551    0.6648    1.7658 H   0  0  0  0  0  0  0  0  0  0  0  0
    3.2562   -0.2220    0.6168 H   0  0  0  0  0  0  0  0  0  0  0  0
    2.1190   -1.0896    1.6475 H   0  0  0  0  0  0  0  0  0  0  0  0
  1  2  1  0  0  0  0
  2  3  1  0  0  0  0
  2  4  1  0  0  0  0
  4  5  1  0  0  0  0
  5  6  1  0  0  0  0
  5  7  1  0  0  0  0
  5  8  1  0  0  0  0
  1  9  1  0  0  0  0
  1 10  1  0  0  0  0
  1 11  1  0  0  0  0
  2 12  1  0  0  0  0
  3 13  1  0  0  0  0
  3 14  1  0  0  0  0
  3 15  1  0  0  0  0
  4 16  1  0  0  0  0
  4 17  1  0  0  0  0
  6 18  1  0  0  0  0
  6 19  1  0  0  0  0
  6 20  1  0  0  0  0
  7 21  1  0  0  0  0
  7 22  1  0  0  0  0
  7 23  1  0  0  0  0
  8 24  1  0  0  0  0
  8 25  1  0  0  0  0
  8 26  1  0  0  0  0
M  END
