16
 xtb: 6.7.1 (edcfbbe)
C            1.14807961925515       -1.54130588977076        0.12786226516809
C            0.72518044041561       -0.09762367914933        0.39500497106985
C            1.64456741500030        0.89665080262771       -0.32695999425477
C           -0.73640408755353        0.23901359204216        0.06523965214159
O           -1.14103336569046        1.37425703815455        0.21548677829796
C           -1.65422304553609       -0.85475933577708       -0.42884875870743
H            2.18445798644235       -1.68880469759677        0.44645109080635
H            0.53208246405579       -2.26436439351856        0.66968404832228
H            1.09940052053151       -1.78143741078182       -0.93940237490146
H            0.80437641566826        0.09837313985778        1.47473502713323
H            1.33412502994735        1.92342266573988       -0.12564575638588
H            1.61303729600719        0.73143264362609       -1.40969255290228
H            2.67921891369434        0.76677802973866        0.00375188449370
H           -1.74297303319729       -1.64843727932062        0.32102563752231
H           -1.24835941254862       -1.32357083490910       -1.33163911202077
H           -2.63835186502300       -0.43442238590116       -0.63622074150026
