 xtb: 6.7.1 (edcfbbe)
          04152519093D

 17 17  0     0  0            999 V2000
   -2.5639    0.9672    0.0001 C   0  0  0  0  0  0  0  0  0  0  0  0
   -1.2339    0.2811   -0.0002 C   0  0  0  0  0  0  0  0  0  0  0  0
   -1.1499   -1.1098    0.0000 C   0  0  0  0  0  0  0  0  0  0  0  0
    0.1003   -1.6989    0.0000 C   0  0  0  0  0  0  0  0  0  0  0  0
    1.2325   -1.0147   -0.0001 N   0  0  0  0  0  0  0  0  0  0  0  0
    1.1694    0.3089   -0.0003 C   0  0  0  0  0  0  0  0  0  0  0  0
   -0.0444    0.9927   -0.0003 C   0  0  0  0  0  0  0  0  0  0  0  0
    2.4715    1.0481    0.0001 C   0  0  0  0  0  0  0  0  0  0  0  0
   -3.1342    0.6811    0.8831 H   0  0  0  0  0  0  0  0  0  0  0  0
   -2.4463    2.0479   -0.0057 H   0  0  0  0  0  0  0  0  0  0  0  0
   -3.1395    0.6720   -0.8764 H   0  0  0  0  0  0  0  0  0  0  0  0
   -2.0447   -1.7138    0.0001 H   0  0  0  0  0  0  0  0  0  0  0  0
    0.2103   -2.7760    0.0002 H   0  0  0  0  0  0  0  0  0  0  0  0
   -0.0520    2.0734   -0.0005 H   0  0  0  0  0  0  0  0  0  0  0  0
    2.5423    1.6913   -0.8755 H   0  0  0  0  0  0  0  0  0  0  0  0
    2.5503    1.6748    0.8871 H   0  0  0  0  0  0  0  0  0  0  0  0
    3.2918    0.3369   -0.0097 H   0  0  0  0  0  0  0  0  0  0  0  0
  1  2  1  0  0  0  0
  2  3  4  0  0  0  0
  3  4  4  0  0  0  0
  4  5  4  0  0  0  0
  5  6  4  0  0  0  0
  2  7  4  0  0  0  0
  6  7  4  0  0  0  0
  6  8  1  0  0  0  0
  1  9  1  0  0  0  0
  1 10  1  0  0  0  0
  1 11  1  0  0  0  0
  3 12  1  0  0  0  0
  4 13  1  0  0  0  0
  7 14  1  0  0  0  0
  8 15  1  0  0  0  0
  8 16  1  0  0  0  0
  8 17  1  0  0  0  0
M  END
