16
CONF1
C -2.5941156912 -0.6987200510 -0.0001754466
C -2.5942355574 0.6982883181 -0.0000588733
C -1.3990019880 1.4206627582 0.0000524594
C -0.2205445356 0.6968401846 0.0000363194
C -0.2204253060 -0.6968625268 -0.0000684829
C -1.3987566889 -1.4208883417 -0.0001697279
C 1.1922790321 -1.1716471859 -0.0000811752
O 1.6196762360 -2.3031780636 -0.0000958476
N 1.9623774579 0.0001753905 0.0000146546
C 1.1920830442 1.1718665296 0.0001097389
O 1.6192806506 2.3034713621 0.0002182796
H -3.5404497257 -1.2294554522 -0.0002790247
H -3.5406635006 1.2288564670 -0.0000410877
H -1.3863419657 2.5052344918 0.0001565349
H -1.3859119230 -2.5054576755 -0.0002867776
H 2.9707855386 0.0002468734 0.0001196804
