26
 xtb: 6.7.1 (edcfbbe)
C           -4.74942066171069       -0.87879454891375        0.18368138009850
N           -3.41428285480387       -0.85797425343931       -0.38430427329883
C           -2.43544942555304       -0.06068615379872        0.11015065733600
O           -2.54043002606272        0.74159479831767        1.00759151103919
O           -1.26482604624837       -0.32282973895008       -0.59215489950413
C           -0.14586014471544        0.46136886707021       -0.34456182920938
C           -0.20084215673526        1.83191827529610       -0.37670843803221
C            0.97923923261911        2.57705094598413       -0.18923307931837
C            2.18356671911410        1.94954796043012        0.01309939084980
C            2.26124438098208        0.53758540637295        0.04076111321983
C            1.06988528384445       -0.23603523338328       -0.13473802119786
C            1.14948601862478       -1.64825763397536       -0.09776769944840
C            2.35682833102791       -2.27238439893492        0.10366686569798
C            3.53490888003596       -1.51547043642231        0.27400303464963
C            3.48545939634849       -0.14359547623096        0.24365833176394
H           -4.82062278145289       -0.06411086922346        0.90600874504333
H           -4.95438916359910       -1.82438165296826        0.69971335436906
H           -5.50378694680724       -0.72823962028504       -0.59580758451984
H           -3.16706041885936       -1.50262343383510       -1.11625727977552
H           -1.14851305068433        2.33130771562472       -0.53327756081363
H            0.92430385474316        3.66042631345443       -0.20935840236140
H            3.09160147400126        2.52763981138706        0.15408752132527
H            0.24347254383752       -2.22810930092086       -0.22840804304894
H            2.40709292316610       -3.35613516358358        0.13338557604730
H            4.48139069948010       -2.02266120488481        0.43095426119013
H            4.38959558797646        0.44339111640952        0.37679774242546
