12
CONF1
C 1.2688667265 -0.6984311123 0.0000618467
C -0.0000075768 0.1047441504 -0.0000665576
C -0.0001115750 1.4385392179 -0.0001320925
C -1.2687570400 -0.6986279394 -0.0000114946
H 2.1549710157 -0.0596836039 0.0006928153
H 1.3116104819 -1.3535571676 0.8791110362
H 1.3122583723 -1.3526722071 -0.8796178528
H -0.9269113215 2.0043279802 -0.0001817654
H 0.9265982508 2.0044751142 0.0000633317
H -2.1549612875 -0.0600192751 -0.0012099434
H -1.3111881231 -1.3542679980 -0.8786886131
H -1.3122587036 -1.3523684315 0.8800390163
