15
 xtb: 6.7.1 (edcfbbe)
C           -2.35233158407195       -0.56860703953958       -0.00118992726181
O           -0.91239486254986       -0.63934092644080       -0.00137755763541
C           -0.28480379434937        0.56688127252391        0.00115199005557
O           -0.87613486347245        1.62320612551885        0.00304387114105
C            1.18721837030521        0.43015741800862        0.00078001701911
C            1.85347515074180       -0.71367370813201        0.74373310868858
C            1.85361169358854       -0.71139570554404       -0.74552436919022
H           -2.69471032650065       -1.60343029446968       -0.00587845258122
H           -2.70814274554791       -0.03913182210146       -0.88880041806286
H           -2.70818112690626       -0.04730388618979        0.89125589533643
H            1.68987551828175        1.38971999387192        0.00230082604759
H            2.77473908243641       -0.47493852629138        1.26293054563496
H            1.19712000459801       -1.41266909417490        1.24766583935473
H            2.77498773894348       -0.47110293355185       -1.26380393029347
H            1.19734357533400       -1.40884935926951       -1.25169093951002
