24
 xtb: 6.7.1 (edcfbbe)
C           -2.57407647634230       -0.71492851063481       -0.29756300859095
C           -1.21233578711885       -0.29319432165554        0.22488910394240
H           -1.24437641082355       -0.26156458368066        1.33169568746675
C           -0.74838418089204        1.06052360982710       -0.31471859861188
H           -0.78289197712058        1.04801663712836       -1.41115788564931
C            0.68271937484103        1.31869752336413        0.14097028283893
H            0.68607001995690        1.41582061711392        1.24472943717378
C            1.60192854763424        0.16102601748958       -0.22546929041526
H            1.62900125918514        0.07346517144210       -1.32824527098323
C            1.02863719774582       -1.14182892098005        0.33568524949498
H            0.98592770012176       -1.10174105135094        1.43570624591086
O           -0.29500882846179       -1.30839212178182       -0.19599028425574
O            1.77449407738857       -2.26234416713923        0.01226319685278
O            2.90271986873401        0.34707347001629        0.30566200822306
O            1.23011433995892        2.49177335334058       -0.45352364963392
O           -1.60195390007785        2.14010385545500        0.08135146137308
O           -2.98983828673575       -1.94774091177938        0.26923832196557
H           -2.52607515299895       -0.77014075119404       -1.39757767018333
H           -3.32078014224001        0.03568877476170       -0.02427129390323
H            2.00534734278552       -2.22108553983221       -0.92449736749391
H            3.17120043623366        1.24672637052700        0.07878356930209
H            0.59091193683327        3.20387169045110       -0.32209859020111
H           -1.66787626503063        2.12995975286229        1.04558317614641
H           -2.27934612520101       -2.58095403073436        0.10479104657170
