 xtb: 6.7.1 (edcfbbe)
          04152519523D

 22 23  0     0  0            999 V2000
   -1.5023    1.1836   -0.5672 C   0  0  0  0  0  0  0  0  0  0  0  0
   -0.8037    0.1662    0.0749 C   0  0  0  0  0  0  0  0  0  0  0  0
   -1.5076   -0.8438    0.7218 C   0  0  0  0  0  0  0  0  0  0  0  0
   -2.8925   -0.8410    0.7157 C   0  0  0  0  0  0  0  0  0  0  0  0
   -3.6004    0.1674    0.0619 C   0  0  0  0  0  0  0  0  0  0  0  0
   -2.8870    1.1807   -0.5777 C   0  0  0  0  0  0  0  0  0  0  0  0
   -3.7331    2.4383   -1.3867 Cl  0  0  0  0  0  0  0  0  0  0  0  0
   -5.3154    0.1636    0.0484 Cl  0  0  0  0  0  0  0  0  0  0  0  0
   -3.7463   -2.0926    1.5245 Cl  0  0  0  0  0  0  0  0  0  0  0  0
    0.6706    0.1858    0.0794 C   0  0  0  0  0  0  0  0  0  0  0  0
    1.3371    1.3382    0.4822 C   0  0  0  0  0  0  0  0  0  0  0  0
    2.7202    1.3929    0.5053 C   0  0  0  0  0  0  0  0  0  0  0  0
    3.4737    0.2866    0.1142 C   0  0  0  0  0  0  0  0  0  0  0  0
    2.8174   -0.8698   -0.3065 C   0  0  0  0  0  0  0  0  0  0  0  0
    1.4238   -0.9198   -0.3226 C   0  0  0  0  0  0  0  0  0  0  0  0
    0.6539   -2.3431   -0.9012 Cl  0  0  0  0  0  0  0  0  0  0  0  0
    3.7329   -2.2287   -0.8086 Cl  0  0  0  0  0  0  0  0  0  0  0  0
    5.1853    0.3429    0.1409 Cl  0  0  0  0  0  0  0  0  0  0  0  0
    3.5108    2.8270    1.0179 Cl  0  0  0  0  0  0  0  0  0  0  0  0
   -0.9700    1.9694   -1.0786 H   0  0  0  0  0  0  0  0  0  0  0  0
   -0.9849   -1.6263    1.2470 H   0  0  0  0  0  0  0  0  0  0  0  0
    0.7674    2.1971    0.7985 H   0  0  0  0  0  0  0  0  0  0  0  0
  1  2  4  0  0  0  0
  2  3  4  0  0  0  0
  3  4  4  0  0  0  0
  4  5  4  0  0  0  0
  1  6  4  0  0  0  0
  5  6  4  0  0  0  0
  6  7  1  0  0  0  0
  5  8  1  0  0  0  0
  4  9  1  0  0  0  0
  2 10  1  0  0  0  0
 10 11  4  0  0  0  0
 11 12  4  0  0  0  0
 12 13  4  0  0  0  0
 13 14  4  0  0  0  0
 10 15  4  0  0  0  0
 14 15  4  0  0  0  0
 15 16  1  0  0  0  0
 14 17  1  0  0  0  0
 13 18  1  0  0  0  0
 12 19  1  0  0  0  0
  1 20  1  0  0  0  0
  3 21  1  0  0  0  0
 11 22  1  0  0  0  0
M  END
