15
 xtb: 6.7.1 (edcfbbe)
C           -2.24505547957089        0.13167024139995       -0.33475473104000
C           -0.97107738372808        0.43089503351641        0.46539354222796
C            0.00516454608868       -0.70417367378718        0.41357472433034
C            1.28949590219680       -0.62667093405062        0.05976655833024
C            2.01482404258612        0.62978556150162       -0.34315945578855
H           -2.01089449159951       -0.02866485393368       -1.39147291337081
H           -2.96042030136563        0.95648413314231       -0.26264112435515
H           -2.73547756723479       -0.77328093406596        0.03871466922246
H           -0.50693828029606        1.35149473029442        0.09672316723412
H           -1.24762810363395        0.61960518089706        1.51272290848106
H           -0.39587063982149       -1.68067336848741        0.68579941655387
H            1.87353306888536       -1.54458187377767        0.06335702359426
H            3.06313761056760        0.42179966130760       -0.56725398829837
H            1.99080682326143        1.38463448466554        0.45042268445532
H            1.57213341196145        1.08647561485853       -1.23597147809963
