 xtb: 6.7.1 (edcfbbe)
          04152519373D

 26 25  0     0  0            999 V2000
   -2.5519    0.7929    0.9394 C   0  0  0  0  0  0  0  0  0  0  0  0
   -1.4420    0.4264   -0.0489 C   0  0  0  0  0  0  0  0  0  0  0  0
   -1.9194   -0.7265   -0.9285 C   0  0  0  0  0  0  0  0  0  0  0  0
   -0.1688    0.1119    0.7502 C   0  0  0  0  0  0  0  0  0  0  0  0
    1.1672   -0.0890    0.0014 C   0  0  0  0  0  0  0  0  0  0  0  0
    1.3193   -1.5212   -0.5184 C   0  0  0  0  0  0  0  0  0  0  0  0
    1.3246    0.8990   -1.1557 C   0  0  0  0  0  0  0  0  0  0  0  0
    2.2970    0.1616    1.0105 C   0  0  0  0  0  0  0  0  0  0  0  0
   -2.7726   -0.0501    1.5912 H   0  0  0  0  0  0  0  0  0  0  0  0
   -2.2575    1.6368    1.5595 H   0  0  0  0  0  0  0  0  0  0  0  0
   -3.4630    1.0623    0.4094 H   0  0  0  0  0  0  0  0  0  0  0  0
   -1.2593    1.2985   -0.6838 H   0  0  0  0  0  0  0  0  0  0  0  0
   -2.9145   -0.5120   -1.3146 H   0  0  0  0  0  0  0  0  0  0  0  0
   -1.2624   -0.8783   -1.7800 H   0  0  0  0  0  0  0  0  0  0  0  0
   -1.9681   -1.6499   -0.3555 H   0  0  0  0  0  0  0  0  0  0  0  0
   -0.0261    0.9473    1.4412 H   0  0  0  0  0  0  0  0  0  0  0  0
   -0.3561   -0.7766    1.3587 H   0  0  0  0  0  0  0  0  0  0  0  0
    1.2242   -2.2343    0.2978 H   0  0  0  0  0  0  0  0  0  0  0  0
    2.3017   -1.6511   -0.9689 H   0  0  0  0  0  0  0  0  0  0  0  0
    0.5729   -1.7594   -1.2683 H   0  0  0  0  0  0  0  0  0  0  0  0
    0.6159    0.6900   -1.9524 H   0  0  0  0  0  0  0  0  0  0  0  0
    2.3279    0.8278   -1.5710 H   0  0  0  0  0  0  0  0  0  0  0  0
    1.1710    1.9195   -0.8116 H   0  0  0  0  0  0  0  0  0  0  0  0
    3.2660   -0.0350    0.5565 H   0  0  0  0  0  0  0  0  0  0  0  0
    2.1877   -0.4890    1.8756 H   0  0  0  0  0  0  0  0  0  0  0  0
    2.2865    1.1938    1.3544 H   0  0  0  0  0  0  0  0  0  0  0  0
  1  2  1  0  0  0  0
  2  3  1  0  0  0  0
  2  4  1  0  0  0  0
  4  5  1  0  0  0  0
  5  6  1  0  0  0  0
  5  7  1  0  0  0  0
  5  8  1  0  0  0  0
  1  9  1  0  0  0  0
  1 10  1  0  0  0  0
  1 11  1  0  0  0  0
  2 12  1  0  0  0  0
  3 13  1  0  0  0  0
  3 14  1  0  0  0  0
  3 15  1  0  0  0  0
  4 16  1  0  0  0  0
  4 17  1  0  0  0  0
  6 18  1  0  0  0  0
  6 19  1  0  0  0  0
  6 20  1  0  0  0  0
  7 21  1  0  0  0  0
  7 22  1  0  0  0  0
  7 23  1  0  0  0  0
  8 24  1  0  0  0  0
  8 25  1  0  0  0  0
  8 26  1  0  0  0  0
M  END
