19
CONF1
C -2.9383619716 -0.3718038841 -0.0000362289
C -2.6968902192 1.0195548974 -0.0000209156
C -1.4108780297 1.5078764440 -0.0000011152
C -0.3012855729 0.6254879361 -0.0000027147
C 1.0325228011 1.0983177811 -0.0000150386
C 2.0787575797 0.2038422364 -0.0000375992
C 1.8473218764 -1.1904578655 -0.0000153557
C 0.5615159796 -1.6676584722 0.0000022708
C -0.5476956599 -0.7855503030 -0.0000036459
C -1.8829707918 -1.2542488916 -0.0000225092
O 3.3976600231 0.5975665587 -0.0000797245
H -3.9589731836 -0.7407808630 -0.0000626329
H -3.5362263228 1.7081868500 -0.0000248338
H -1.2276375495 2.5786521245 0.0000103529
H 1.2241001086 2.1682897658 -0.0000195372
H 2.6975444505 -1.8647407052 -0.0000179837
H 0.3800413879 -2.7386037582 0.0000156409
H -2.0579364305 -2.3266280491 -0.0000340670
H 3.4383245914 1.5647885429 -0.0001720441
