19
CONF1
C -2.9379979312 -0.3716551530 -0.0000049079
C -2.6973892802 1.0182416791 -0.0000032790
C -1.4124006455 1.5054796115 -0.0000002282
C -0.3032492105 0.6254955228 0.0000004323
C 1.0310122868 1.0951279398 0.0000001723
C 2.0813987979 0.2055963475 -0.0000002106
C 1.8475188020 -1.1880753363 0.0000024578
C 0.5624409194 -1.6630226138 0.0000028039
C -0.5481118246 -0.7838484694 0.0000005202
C -1.8822185128 -1.2516628754 -0.0000025802
O 3.3936735264 0.5900488819 -0.0000027314
H -3.9579504305 -0.7417101180 -0.0000087365
H -3.5366139469 1.7066516170 -0.0000037353
H -1.2314247436 2.5767029665 0.0000014943
H 1.2144872657 2.1675915114 -0.0000003173
H 2.7013315756 -1.8569602689 0.0000038853
H 0.3821311472 -2.7343546723 0.0000049259
H -2.0584786497 -2.3238836307 -0.0000039328
H 3.4392761063 1.5530919092 -0.0000091558
