20
CONF1
C -1.7984294070 0.7520641362 0.5340745712
C -0.7083285899 -0.3111604741 0.3744285933
C -0.9962180254 -1.1781824503 -0.8541811879
C 0.7082947044 0.3110599797 0.3745963667
C 1.7983723252 -0.7521987341 0.5341301216
C 0.9962997556 1.1784037987 -0.8537553964
H -2.7820447204 0.2854586852 0.6503717851
H -1.6169972053 1.3806026463 1.4123587682
H -1.8502483003 1.4047892394 -0.3438653405
H -0.7538616683 -0.9626316575 1.2597713656
H -1.0400792724 -0.5708448550 -1.7647211668
H -0.2400039768 -1.9549816079 -1.0008120548
H -1.9646940255 -1.6774935153 -0.7483938161
H 0.7537131998 0.9623050977 1.2601110373
H 1.6171347057 -1.3805738329 1.4125712815
H 1.8499228751 -1.4050773110 -0.3437102762
H 2.7820457920 -0.2856290789 0.6500880370
H 1.0404084952 0.5712890661 -1.7644330793
H 1.9646903252 1.6778166523 -0.7476628572
H 0.2400058519 1.9551376796 -1.0003346593
20
CONF2
C -1.4949896089 -0.1742752660 1.2505375704
C -0.6453725137 -0.4245859497 0.0002298335
C -1.4942345300 -0.1755088553 -1.2508372968
C 0.6453776534 0.4245820908 0.0002931520
C 1.4949456614 0.1741387278 1.2506124812
C 1.4942756186 0.1756231147 -1.2507716172
H -1.7409933681 0.8909413165 1.3417505821
H -2.4372213083 -0.7284517982 1.1938697760
H -0.9876169780 -0.4835920417 2.1675878519
H -0.3383891780 -1.4822049496 0.0008184566
H -2.4369293733 -0.7288505082 -1.1937115147
H -1.7393449507 0.8897579371 -1.3438797978
H -0.9866663221 -0.4866981288 -2.1671519199
H 0.3384011940 1.4822029227 0.0009723151
H 0.9876825728 0.4837071610 2.1676407795
H 1.7406213333 -0.8911453405 1.3419370230
H 2.4373484516 0.7280182177 1.1938750141
H 1.7395191883 -0.8896116267 -1.3438270691
H 2.4368999087 0.7290828635 -1.1936352403
H 0.9866718075 0.4867614165 -2.1670834074
20
CONF3
C -1.4815798017 -0.2989974240 1.2386800758
C -0.6238715829 -0.4547599543 -0.0217372547
C -1.4890431021 -0.1913693007 -1.2587495263
C 0.6254742664 0.4528448060 0.0110663165
C 1.4680970813 0.2251990063 1.2706428134
C 1.5049660980 0.2584883821 -1.2290582406
H -1.7687907211 0.7501310659 1.3819889141
H -2.4015261590 -0.8858129577 1.1521735875
H -0.9623926115 -0.6336741033 2.1401119440
H -0.2679658135 -1.4960368008 -0.0671497444
H -0.9622534913 -0.4079210223 -2.1912073971
H -2.3898739393 -0.8130046249 -1.2386941158
H -1.8100201308 0.8573841778 -1.2856827043
H 0.2706575327 1.4954197022 0.0205644216
H 1.7618046351 -0.8287665265 1.3521096640
H 2.3845393579 0.8227689787 1.2341401923
H 0.9340037743 0.4992374623 2.1837382177
H 1.8040596831 -0.7926250494 -1.3259934189
H 2.4181761630 0.8570893222 -1.1513025955
H 0.9981625951 0.5523114304 -2.1515321599
