15
CONF2
C -2.6779067835 -0.1310058882 -0.0008729869
O -1.3640601213 -0.7269544388 0.0008683438
C -0.3012743824 0.1187011976 0.0004558580
O -0.3834799282 1.3274892817 -0.0010307505
C 0.9650386515 -0.6444746245 0.0014746795
C 2.1329400650 -0.0276514731 -0.7450043174
C 2.1342652374 -0.0239718474 0.7425355284
H -3.1955947132 -0.4691543812 -0.9017732172
H -2.6046352226 0.9576355197 0.0119560615
H -3.2056262051 -0.4903519917 0.8857567276
H 0.8718022617 -1.7236085742 0.0040453977
H 2.7893591069 -0.7151317567 -1.2662434144
H 1.9294134966 0.9121978980 -1.2457144391
H 2.7916998205 -0.7088457931 1.2659213241
H 1.9316208656 0.9183510714 1.2389377799
15
CONF1
C -2.6537454449 -0.1016678347 -0.0001617306
O -1.3658716824 -0.7515287516 0.0004815009
C -0.3062407972 0.0942947713 -0.0005260732
O -0.4118960282 1.3018484835 -0.0015633847
C 0.9693763334 -0.6527444748 0.0001023734
C 2.1293151560 -0.0189851161 -0.7443250434
C 2.1295157151 -0.0177633374 0.7431676907
H -3.3866106204 -0.9083964223 0.0044268502
H -2.7671994701 0.5189042502 -0.8929493655
H -2.7643678274 0.5266893430 0.8874831295
H 0.8901598532 -1.7331694303 0.0010203835
H 2.7957399551 -0.6962518900 -1.2663698189
H 1.9126029365 0.9188889962 -1.2434097352
H 2.7960827275 -0.6941970963 1.2661125726
H 1.9129951464 0.9209329436 1.2407858307
