24
CONF1
C -2.6712198368 -1.6858358217 0.8311883057
C -2.3231812564 -1.0078354746 -0.4961659901
C -1.2962850407 0.0722892099 -0.2939598886
C -1.7080019852 1.3769682864 -0.1888092594
C -0.8017444434 2.4208042894 0.0397498427
C 0.5305838329 2.1533994431 0.1667643667
C 1.0051462847 0.8293778208 0.0674351010
C 0.0866285185 -0.2311195264 -0.1658686332
C 0.6021393498 -1.5427455515 -0.2612407900
C 1.9397443525 -1.7916179593 -0.1282489595
C 2.8403013420 -0.7428793232 0.1061733922
C 2.3794992879 0.5390972045 0.1990709038
H -1.7873340408 -2.1333161981 1.2794389794
H -3.4160808898 -2.4635231360 0.6768852052
H -3.0724886297 -0.9554015792 1.5302610037
H -3.2295622302 -0.5645389261 -0.9141295574
H -1.9632385310 -1.7527748451 -1.2078117485
H -2.7591675750 1.6115255071 -0.2847783167
H -1.1689198844 3.4341782679 0.1144905113
H 1.2408578143 2.9481457693 0.3454171964
H -0.0684572057 -2.3678220773 -0.4440655831
H 2.3122565563 -2.8031609420 -0.2043867796
H 3.8940912105 -0.9573155889 0.2092442316
H 3.0632417540 1.3575903168 0.3760717583
24
CONF2
C -3.6051058888 -1.0337828026 0.0341098549
C -2.1099452914 -1.3258243504 -0.0069817836
C -1.2070183639 -0.1180289554 0.0210270539
C -1.7003902112 1.1596104587 0.0812963722
C -0.8525426723 2.2771066475 0.1072885390
C 0.5011500827 2.1176228893 0.0726496013
C 1.0612331927 0.8247451816 0.0101528745
C 0.2049914547 -0.3092570917 -0.0161936047
C 0.8051775543 -1.5862530983 -0.0790339123
C 2.1643962743 -1.7326496991 -0.1136135247
C 3.0033260742 -0.6102454579 -0.0872452904
C 2.4591334836 0.6407641955 -0.0265857400
H -3.8755834486 -0.5068469597 0.9462356298
H -4.1580276342 -1.9707277861 0.0090166125
H -3.9107936885 -0.4385737767 -0.8232715533
H -1.8934579094 -1.8963450651 -0.9156116948
H -1.8577865223 -1.9637812833 0.8458849349
H -2.7641074806 1.3336248506 0.1104737369
H -1.2878423811 3.2649417926 0.1551964686
H 1.1625621276 2.9720069504 0.0924763627
H 0.1832729436 -2.4675001964 -0.1005465625
H 2.6007821582 -2.7200173977 -0.1618215604
H 4.0750176616 -0.7432695637 -0.1151692674
H 3.0933252930 1.5160529824 -0.0055685893
