19
CONF1
C -2.6032199325 1.4111626759 -0.0000063973
C -1.6165840324 0.2919902482 -0.0000332552
C -1.8822123175 -1.0558918185 -0.0000453022
N -0.7010067337 -1.7738747675 0.0000786734
C 0.3565132035 -0.8981857737 -0.0000282190
C -0.1862249431 0.4181104042 -0.0000242676
C 0.6890860031 1.5142421952 0.0000229399
C 2.0575876603 1.2800509711 0.0000197024
C 2.5714452903 -0.0314367792 -0.0000189882
C 1.7303624724 -1.1372749344 -0.0000319313
H -3.6276512397 1.0290527252 0.0004413058
H -2.4821678965 2.0528202164 0.8807592039
H -2.4827729897 2.0523539616 -0.8811972496
H -2.8340572829 -1.5695938396 -0.0000491416
H -0.6310502595 -2.7791731995 -0.0006433954
H 0.3004579531 2.5288816857 0.0000561347
H 2.7473279303 2.1185252091 0.0000475117
H 3.6467309465 -0.1812415033 -0.0000271164
H 2.1254056980 -2.1485558883 -0.0000417542
