19
CONF1
C -2.5998934681 1.4105828587 -0.0000516404
C -1.6162970122 0.2890863862 -0.0000368002
C -1.8858094398 -1.0547958694 -0.0000342412
N -0.7025469941 -1.7735058996 0.0000742056
C 0.3578648904 -0.8977440325 -0.0000082745
C -0.1861633777 0.4145932039 -0.0000162165
C 0.6876878367 1.5093342998 0.0000340287
C 2.0544008911 1.2776115493 0.0000448481
C 2.5694284519 -0.0306547188 0.0000101792
C 1.7304560530 -1.1358569748 -0.0000070679
H -2.4756298478 2.0490960602 0.8823028575
H -2.4756481310 2.0490350321 -0.8824539699
H -3.6266492794 1.0353508755 -0.0000281921
H -2.8394037369 -1.5642539068 -0.0000243592
H -0.6318182330 -2.7749376650 -0.0004303587
H 0.2988843794 2.5233652486 0.0000623933
H 2.7425686931 2.1166256218 0.0000823913
H 3.6443869608 -0.1789827123 0.0000104228
H 2.1312508030 -2.1448611556 -0.0000109029
