12
 xtb: 6.7.1 (edcfbbe)
C            1.85201487223328       -0.07195304273101       -0.25441511212377
C            0.54213138916557        0.16879528198865        0.46469050720560
O           -0.52151257818138       -0.15159658993666       -0.42455099792418
C           -1.78901099131519        0.04435304651253        0.17507604833056
H            2.69451528666261        0.16461405690940        0.40212602529208
H            1.93240657490127       -1.11818997493474       -0.56159677283944
H            1.91882789529725        0.55570560691730       -1.14719964848042
H            0.45974377841078        1.22247790855171        0.78405072292900
H            0.47377765318233       -0.45686204340301        1.37185321115334
H           -1.91784815408940       -0.59285377842870        1.06477222391938
H           -2.54471598759152       -0.22398436253949       -0.56687575766779
H           -1.93698801075265        1.09470467801353        0.47364326961097
