22
CONF1
C 1.2349034153 0.7234654805 -1.4566178694
C 2.6111454077 0.8366080530 -1.5828568144
C 3.4454829734 0.4305786957 -0.5451356727
C 2.8908666973 -0.0925428936 0.6258417226
C 1.5105773018 -0.2076059084 0.7486314472
C 0.6792593756 0.1996047499 -0.2903499452
C -0.7932958717 0.0717206097 -0.1487955873
C -1.5740273693 1.1781722840 0.2111505424
C -2.9601375338 1.0543141546 0.3421223732
C -3.5756771935 -0.1691841142 0.1181867845
C -2.8143036243 -1.2733728478 -0.2381285928
C -1.4278317793 -1.1574479731 -0.3728683544
Cl -0.4766767591 -2.5336871388 -0.8346865373
Cl -3.6224276426 -2.7850710925 -0.5131803220
Cl -3.9470312960 2.4107213068 0.7897187856
Cl -0.8010361893 2.7033556691 0.5085221543
Cl 3.8976243487 -0.6097870889 1.9462202419
Cl 5.1670237198 0.5855237513 -0.7335695558
H 0.5898521758 1.0441232254 -2.2674621561
H 3.0521759683 1.2408529169 -2.4864934046
H 1.0906536124 -0.6183867627 1.6597183218
H -4.6492535929 -0.2622266296 0.2215765085
