19
 xtb: 6.7.1 (edcfbbe)
C           -3.82298389370883        0.69757395551089       -0.00051368747265
O           -2.38842075855893        0.83253321954479        0.00030431681526
C           -1.71017290408523       -0.34356518147451       -0.00004169933121
O           -2.26111459102263       -1.42457191498867       -0.00075438149807
C           -0.24568523654899       -0.14326649830867        0.00015982052474
C            0.57108241768436       -1.27764086147536       -0.00003199887991
C            1.95040558206938       -1.15493659070643       -0.00007211097368
C            2.53016419673698        0.11649448424047        0.00000563878654
C            1.72644631068819        1.25803036741985        0.00025312273823
C            0.34873360974061        1.12482391472686        0.00033015095362
O            3.87912860753517        0.30587408190782       -0.00017386160751
H           -4.15516092775634        0.15925168401790       -0.89210443392334
H           -4.21069786125867        1.71624640565662        0.00193538045284
H           -4.15584578398186        0.15461422206903        0.88798130224313
H            0.10243185309598       -2.25552295358525       -0.00012301814329
H            2.57937634001986       -2.04162380135321       -0.00020060658645
H            2.19890048239154        2.23380226366699        0.00033785110321
H           -0.27695904906068        2.00894216334485        0.00049143418340
H            4.32128988215520       -0.55114459328182       -0.00049156247612
