 xtb: 6.7.1 (edcfbbe)
          04152519553D

 19 19  0     0  0            999 V2000
   -3.7993    0.7198    0.0267 C   0  0  0  0  0  0  0  0  0  0  0  0
   -2.3853    0.8290    0.0413 O   0  0  0  0  0  0  0  0  0  0  0  0
   -1.7102   -0.3311   -0.0403 C   0  0  0  0  0  0  0  0  0  0  0  0
   -2.2600   -1.4037   -0.1220 O   0  0  0  0  0  0  0  0  0  0  0  0
   -0.2453   -0.1409   -0.0182 C   0  0  0  0  0  0  0  0  0  0  0  0
    0.5692   -1.2689   -0.0908 C   0  0  0  0  0  0  0  0  0  0  0  0
    1.9419   -1.1423   -0.0727 C   0  0  0  0  0  0  0  0  0  0  0  0
    2.5232    0.1201    0.0184 C   0  0  0  0  0  0  0  0  0  0  0  0
    1.7111    1.2519    0.0908 C   0  0  0  0  0  0  0  0  0  0  0  0
    0.3401    1.1216    0.0727 C   0  0  0  0  0  0  0  0  0  0  0  0
    3.8655    0.2951    0.0399 O   0  0  0  0  0  0  0  0  0  0  0  0
   -4.1434    0.1256    0.8761 H   0  0  0  0  0  0  0  0  0  0  0  0
   -4.1339    0.2379   -0.8945 H   0  0  0  0  0  0  0  0  0  0  0  0
   -4.1839    1.7346    0.0893 H   0  0  0  0  0  0  0  0  0  0  0  0
    0.1033   -2.2399   -0.1611 H   0  0  0  0  0  0  0  0  0  0  0  0
    2.5718   -2.0204   -0.1290 H   0  0  0  0  0  0  0  0  0  0  0  0
    2.1819    2.2195    0.1606 H   0  0  0  0  0  0  0  0  0  0  0  0
   -0.2891    1.9954    0.1286 H   0  0  0  0  0  0  0  0  0  0  0  0
    4.3143   -0.5579   -0.0156 H   0  0  0  0  0  0  0  0  0  0  0  0
  1  2  1  0  0  0  0
  2  3  1  0  0  0  0
  3  4  2  0  0  0  0
  3  5  1  0  0  0  0
  5  6  4  0  0  0  0
  6  7  4  0  0  0  0
  7  8  4  0  0  0  0
  8  9  4  0  0  0  0
  5 10  4  0  0  0  0
  9 10  4  0  0  0  0
  8 11  1  0  0  0  0
  1 12  1  0  0  0  0
  1 13  1  0  0  0  0
  1 14  1  0  0  0  0
  6 15  1  0  0  0  0
  7 16  1  0  0  0  0
  9 17  1  0  0  0  0
 10 18  1  0  0  0  0
 11 19  1  0  0  0  0
M  END
