15
 xtb: 6.7.1 (edcfbbe)
C           -2.25062546659261        0.23602131402337        0.25296996914449
C           -0.99692547566438        0.24389970364372       -0.63096188248804
C            0.00489889510581       -0.77736238952143       -0.18529278388802
C            1.27750880331954       -0.58153967332510        0.16845750300045
C            2.03354693176982        0.70975945413777        0.19268760180575
H           -2.72264096490994       -0.75188715073953        0.25145990058329
H           -2.98852636583434        0.96215768978636       -0.10153534413992
H           -1.99574524805652        0.48168895798998        1.28812467153505
H           -1.29234118492713        0.02368073021752       -1.66630423218435
H           -0.55878418711045        1.24607549462419       -0.64211968169104
H           -0.37638298846335       -1.79809822876376       -0.13940302330658
H            1.85122181939160       -1.45632592124808        0.47314421127620
H            2.46014075212072        0.88818883231854        1.18668261947146
H            1.41547414338895        1.57032421640020       -0.06957317426894
H            2.87720610434781        0.67558102724761       -0.50742456555993
