8
CONF1
C -0.4484963861 0.6027929191 0.0001215647
C 0.4484397756 -0.6027112125 0.0001221893
Br 2.3280063005 0.0297548053 0.0000727084
Br -2.3280592194 -0.0296794881 0.0000842876
H -0.3310191040 1.2111099145 -0.8950451417
H -0.3310453112 1.2110893131 0.8953040633
H 0.3309901109 -1.2110074179 0.8953062882
H 0.3309575692 -1.2110311278 -0.8950403042
