15
 xtb: 6.7.1 (edcfbbe)
C           -2.93339851865867       -0.00058458137867        0.01160881575779
C           -2.23750026436387       -1.20613050634377        0.00224914506898
C           -0.84740411301831       -1.20943900334484       -0.01769556643975
C           -0.15722093533169        0.00095705008235       -0.03147163059343
C           -0.84861577411724        1.21050904434053       -0.01790250532024
C           -2.23883098216241        1.20561240277582        0.00194345763541
C            1.34464913469551        0.00041105419185       -0.00327322803521
F            1.81870574071612       -0.01635066084354        1.27052807425106
F            1.86555869912315       -1.08213822785435       -0.62617836300081
F            1.86642633819662        1.09778906574141       -0.59841498685229
H           -4.01848816932959       -0.00116366820765        0.02422551928864
H           -2.77768462219053       -2.14701537099452        0.00802781209615
H           -0.29975108591124       -2.14528074637466       -0.02916847210879
H           -0.30209177218438        2.14693562831718       -0.02955864528586
H           -2.78000646886241        2.14593143373908        0.00742962567707
