23
 xtb: 6.7.1 (edcfbbe)
C           -2.68880820413816       -0.87932381886197        0.01041531694623
C           -1.67166817975965        0.11235685398519       -0.55334499357706
C           -0.58747823185460        0.51148927419589        0.47219388453717
C            0.87018427673280        0.16550275066692        0.10001790876832
C            1.28924909627346        0.90306734644386       -1.17837171764239
C            1.77879672160037        0.61555213763761        1.25222364043156
C            1.02882489691512       -1.34796709833305       -0.09518194225886
H           -3.44616542600539       -1.14797033489797       -0.73306410738532
H           -2.19321547167801       -1.80099886157619        0.33544380024367
H           -3.20565624643062       -0.45769954181618        0.87935456835676
H           -1.20778477089801       -0.32695702859074       -1.44331798979391
H           -2.19730126730249        1.00586752064557       -0.90828881493677
H           -0.80896665526397        0.02359994262389        1.43155697974703
H           -0.63661406679782        1.59039582538167        0.66710392375326
H            2.33782483329003        0.69388770506221       -1.41738146513304
H            0.68721773390912        0.59962131473874       -2.04068446580650
H            1.18060020282878        1.98667564016335       -1.05566836569826
H            2.82837616628599        0.39064253891594        1.03293914714669
H            1.51188476162033        0.10578825290292        2.18475191820673
H            1.69302101155536        1.69499154456375        1.42004033666489
H            0.74551684974111       -1.88974809469450        0.81436585615091
H            0.40873414001867       -1.72078239590118       -0.91713287589663
H            2.06971784427735       -1.59918877761341       -0.32722289724777
