15
 xtb: 6.7.1 (edcfbbe)
C            1.28774545789425        1.22099188333964       -0.24100020904618
C            0.48133734023127        0.09745824235829        0.43174784904617
C            0.90913585135354       -1.26952141857650       -0.09527212313683
C           -0.98949169849121        0.37658391123837        0.28421261180558
C           -1.89682689577192       -0.40064600245761       -0.30155265706778
H            1.01303115552073        2.20331641046535        0.15663703984009
H            1.09698152172474        1.22865232272992       -1.31970149255230
H            2.36170518044529        1.07839317797833       -0.08253150136981
H            0.70635044401609        0.13585184636764        1.50928258946408
H            0.36419312749588       -2.08035288430354        0.39796450317476
H            0.73144028280924       -1.34528663554084       -1.17405322298205
H            1.97832633913690       -1.42507351763665        0.07783538895956
H           -1.31193438697473        1.33552022590753        0.69324379024837
H           -2.93470837348839       -0.09135393249213       -0.37288879752187
H           -1.64188863610806       -1.36275666208263       -0.73526782731348
