12
CONF1
C 0.2104214100 1.5168362071 -0.0002596126
C 1.1104397885 0.5168781737 -0.0001106324
C 0.7105575266 -0.8835704161 0.0000748982
O 1.4577453063 -1.8404846663 0.0002005438
N -0.6900994625 -1.0295851508 0.0001412369
C -1.6669433167 -0.0429657261 -0.0000688476
O -2.8604441370 -0.2675642712 -0.0000800528
N -1.1371224745 1.2422284447 -0.0002444645
F 2.4223676399 0.7750639453 -0.0001355764
H 0.5077175749 2.5591094845 -0.0004060465
H -1.0353154633 -1.9805948157 0.0002329045
H -1.8142701512 1.9882241529 -0.0003229018
