21
 xtb: 6.7.1 (edcfbbe)
C           -2.66846195559702       -0.64040290018746        0.72234094095941
C           -1.86289907443127       -0.46453736160722       -0.57324712264482
C           -0.38817492423106       -0.30647629197365       -0.29979329303054
C            0.41767848854810       -1.44403897314921       -0.22033781009658
C            1.77159526853076       -1.35660577383273        0.08350323711124
C            2.34048473636554       -0.10953911022236        0.31377624075592
C            1.54845149199759        1.03075092999685        0.23610176332310
C            0.18717474169439        0.95559075744588       -0.06749809069670
C           -0.62660891894756        2.21919313367106       -0.16565069761432
H           -3.73684468716599       -0.74849998323665        0.51133040817972
H           -2.53655262249085        0.21696481439652        1.38962878599142
H           -2.33181094419531       -1.53047159208633        1.26212072620104
H           -2.24458983975824        0.39802839459363       -1.12852124262491
H           -2.01745558139010       -1.34145999580845       -1.21175149343657
H           -0.03049351690934       -2.41796276661921       -0.40283635039402
H            2.37701253178458       -2.25582721439707        0.13638531448723
H            3.39604416319776       -0.02214551344813        0.55043646663600
H            1.99423559418646        2.00586033235182        0.41358718820721
H           -0.95204301848780        2.40340821264702       -1.19653171450411
H           -1.52893475062976        2.17806584237016        0.45317423022139
H           -0.03869066664876        3.08233823450847        0.15636076257368
