27
CONF1
C 3.7082103494 -0.2820344856 0.1165167094
C 2.2206980342 -0.1801280525 0.0134388902
C 1.5800747907 1.0036293606 -0.0165757992
C 0.1289227088 1.1331501764 -0.1907490240
O -0.4053966200 2.2335456261 -0.2043096931
C -0.6600888090 -0.1585312790 -0.4196927061
H -0.5363763376 -0.3655329024 -1.4980450848
C -0.0016541055 -1.3123179513 0.3433742946
C 1.4598624304 -1.4732029151 -0.0657278758
C -2.1637757491 0.0303506312 -0.1536530353
C -2.9915409246 -1.1064652912 -0.7560426733
C -2.4744316257 0.2024298328 1.3354485455
H 3.9919102031 -0.7835051989 1.0504233185
H 4.1899251004 0.6974291378 0.0840794977
H 4.1060962183 -0.8988035466 -0.6991564222
H 2.1280216111 1.9399954260 0.0544660055
H -0.0438874489 -1.1077421602 1.4200193709
H -0.5451252796 -2.2469287993 0.1700043744
H 1.9591061240 -2.2263246062 0.5569677232
H 1.5263223464 -1.8503883992 -1.0990366401
H -2.4403167210 0.9631315829 -0.6583085877
H -4.0610369063 -0.9109355674 -0.6270339941
H -2.7774155721 -2.0658075161 -0.2711149617
H -2.7983145295 -1.2187020780 -1.8285194086
H -1.8592333052 0.9891847286 1.7822835471
H -2.3094750165 -0.7282942865 1.8901490302
H -3.5237641620 0.4815700178 1.4733244501
27
CONF2
C 3.2651186226 -0.0909750560 1.0018307948
C 1.9348937757 -0.0976764760 0.3198008502
C 1.3672973894 1.0251798203 -0.1608639035
C 0.0392259032 1.0558631430 -0.7879523040
O -0.3916039234 2.0747165377 -1.3112309865
C -0.7857036823 -0.2217544268 -0.6958286679
H -1.5120391387 -0.1949477273 -1.5176568470
C 0.1545811955 -1.4209912381 -0.8700565192
C 1.2533305199 -1.4304224119 0.1907039237
C -1.5822875029 -0.2300427246 0.6384203143
C -2.5873937685 0.9240270426 0.6820786504
C -2.3101959271 -1.5603950693 0.8502892279
H 3.6610149626 0.9200951716 1.1165220080
H 3.9889547048 -0.6909053806 0.4363783702
H 3.1871928366 -0.5538162155 1.9936718597
H 1.8800580926 1.9819157877 -0.0982931124
H -0.4030775642 -2.3622074526 -0.8587670662
H 0.6263700883 -1.3475365208 -1.8581712459
H 0.8432280661 -1.7063436749 1.1747556933
H 2.0040123665 -2.1978887415 -0.0373350116
H -0.8682352751 -0.0909045216 1.4632428352
H -2.1068880088 1.8955772971 0.5483644978
H -3.1174793052 0.9287697543 1.6398310338
H -3.3313026365 0.8126854393 -0.1152507107
H -2.9651740587 -1.7813139352 -0.0010477952
H -2.9367230816 -1.5077502495 1.7463242411
H -1.6239637493 -2.4022553493 0.9778880485
27
CONF3
C 3.7406501789 -0.1542675844 0.0629745383
C 2.2486495365 -0.1757613623 -0.0184558935
C 1.4977655224 0.9185955359 0.2049150293
C 0.0358615196 0.9513736823 0.0595671873
O -0.5829363057 1.9815982192 0.2916342555
C -0.6336602032 -0.3260324182 -0.4484695268
H -0.5049747331 -0.2846355939 -1.5449623543
C 0.1468594686 -1.5507008453 0.0466886254
C 1.6106417608 -1.4872829278 -0.3763672204
C -2.1479114621 -0.4288868039 -0.1666922240
C -2.4962945002 -0.2736122284 1.3171308778
C -2.9707970327 0.5359751834 -1.0254009176
H 4.0887238981 -0.8227765200 0.8603593114
H 4.1272753287 0.8491550695 0.2523838222
H 4.1788650021 -0.5311715090 -0.8697696631
H 1.9556552127 1.8663104448 0.4777982804
H 0.0982949534 -1.5975852114 1.1417015497
H -0.3199350181 -2.4653267260 -0.3361655405
H 2.1844348335 -2.3064791794 0.0750421806
H 1.6984480989 -1.6277486904 -1.4658554261
H -2.4261118231 -1.4506337388 -0.4668493584
H -2.2781804042 0.7405463400 1.6617443656
H -1.9441498871 -0.9796119936 1.9458343836
H -3.5633435619 -0.4628212378 1.4726813188
H -4.0409508198 0.3510558154 -0.8830205703
H -2.7479593798 0.4049712910 -2.0902619823
H -2.7583977972 1.5723672626 -0.7548576027
