11
 xtb: 6.7.1 (edcfbbe)
C           -2.46764398077508       -0.82326893329486       -0.23697324347163
O           -1.17399565188789       -0.69400084569448        0.39601914428906
C           -0.55717376249255        0.48256274046881        0.18052666216866
O           -1.02650426117948        1.40595853430834       -0.43803488044265
C            0.81321880129001        0.49502116999578        0.82332680472035
Cl           1.98111257642631       -0.36614846361950       -0.26744607674208
H           -2.36064116897502       -0.75492158994799       -1.32242950368945
H           -3.13927495940436       -0.03474533122511        0.11074843719390
H           -2.83554525981565       -1.80603359613102        0.05508166424990
H            0.81482890637906       -0.02782590898412        1.78081413787104
H            1.15327136668751        1.52448821484602        0.92566709997117
