15
CONF1
C -0.1398075351 -1.3543169660 0.0000004254
C 1.2271327543 -1.1954357471 -0.0000053387
C 1.7802185676 0.0864977046 -0.0000013135
C 0.9437578556 1.2020492254 0.0000000118
C -0.4234162363 1.0368236020 -0.0000005874
C -0.9844685453 -0.2419404163 0.0000061105
C -2.4376079835 -0.4028844570 0.0000199323
O -3.2423643534 0.4957471702 -0.0000115560
O 3.1270249893 0.1971540154 0.0000003630
H -0.5661218344 -2.3469276816 -0.0000058235
H 1.8938555772 -2.0428989076 -0.0000131987
H 1.3751751467 2.1944526087 0.0000039767
H -1.0854850600 1.8895579654 0.0000059850
H -2.7678938747 -1.4617547625 -0.0000500850
H 3.3888172994 1.1266765437 0.0000075389
15
CONF2
C -0.3482748697 -1.0664082596 -0.0002142401
C 1.0246102584 -1.1385751453 -0.0000152803
C 1.7821673780 0.0344498362 0.0000742906
C 1.1417019240 1.2727612701 -0.0003562992
C -0.2353228974 1.3388431858 -0.0005402206
C -0.9986378684 0.1718249252 -0.0003745012
C -2.4593633170 0.2341317686 -0.0002318938
O -3.2022248828 -0.7159053905 0.0008233257
O 3.1288185743 -0.0773421277 0.0005372332
H -0.9508205915 -1.9618965455 -0.0004840001
H 1.5410734309 -2.0851005029 0.0003001098
H 1.7320022509 2.1798584081 -0.0004344501
H -0.7279676141 2.3005830827 -0.0006163843
H -2.8602252364 1.2687390247 -0.0010477619
H 3.5408796303 0.7959176019 0.0004448531
