15
CONF1
C -0.1400340734 -1.3489702812 -0.0000520201
C 1.2357216525 -1.1992980759 -0.0000035803
C 1.7802051301 0.0872964633 0.0000182611
C 0.9469216165 1.2141553066 0.0000355229
C -0.4252665978 1.0498795529 0.0000302243
C -0.9859742188 -0.2335310149 -0.0000828885
C -2.4424128576 -0.4146408103 -0.0003886081
O -3.2550804434 0.4892408737 0.0000741845
O 3.1355027307 0.1856145498 0.0000177348
H -0.5728546430 -2.3463902988 -0.0000716385
H 1.9036676202 -2.0534790418 -0.0000066043
H 1.3824597994 2.2106383671 0.0000284329
H -1.0917597618 1.9064457356 -0.0000053787
H -2.7741363570 -1.4795849228 0.0003387400
H 3.3918571088 1.1154235992 0.0000241212
15
CONF2
C -0.3452134588 -1.0758041854 -0.0002226744
C 1.0328644356 -1.1431479351 0.0000014663
C 1.7814877166 0.0405259381 0.0000227686
C 1.1461561576 1.2848861979 -0.0001955783
C -0.2388945142 1.3376690100 -0.0004689593
C -0.9991167216 0.1651816050 -0.0003891454
C -2.4645116522 0.2441738315 0.0003626752
O -3.2130562459 -0.7129540139 0.0004724531
O 3.1350240342 -0.0884711243 0.0002557994
H -0.9487070007 -1.9776497632 -0.0000991336
H 1.5570146232 -2.0923725617 0.0002113060
H 1.7346348167 2.1987388467 -0.0001292627
H -0.7423243860 2.3011645423 -0.0005824367
H -2.8686633972 1.2838121337 -0.0016502808
H 3.5417218669 0.7861285868 0.0002758390
