 xtb: 6.7.1 (edcfbbe)
          04152519393D

 19 19  0     0  0            999 V2000
   -3.3619   -0.1237   -0.1109 C   0  0  0  0  0  0  0  0  0  0  0  0
   -2.1749    0.8042    0.1125 C   0  0  0  0  0  0  0  0  0  0  0  0
   -0.8166    0.1558    0.0293 C   0  0  0  0  0  0  0  0  0  0  0  0
   -0.6307   -1.2103   -0.1374 C   0  0  0  0  0  0  0  0  0  0  0  0
    0.6467   -1.7401   -0.2007 C   0  0  0  0  0  0  0  0  0  0  0  0
    1.7568   -0.9239   -0.0989 C   0  0  0  0  0  0  0  0  0  0  0  0
    1.5831    0.4447    0.0689 C   0  0  0  0  0  0  0  0  0  0  0  0
    0.3016    0.9733    0.1312 C   0  0  0  0  0  0  0  0  0  0  0  0
    2.6386    1.3005    0.1754 O   0  0  0  0  0  0  0  0  0  0  0  0
   -3.3062   -0.5943   -1.0899 H   0  0  0  0  0  0  0  0  0  0  0  0
   -4.2874    0.4460   -0.0597 H   0  0  0  0  0  0  0  0  0  0  0  0
   -3.3997   -0.8986    0.6512 H   0  0  0  0  0  0  0  0  0  0  0  0
   -2.2681    1.2706    1.0983 H   0  0  0  0  0  0  0  0  0  0  0  0
   -2.2108    1.6121   -0.6242 H   0  0  0  0  0  0  0  0  0  0  0  0
   -1.4762   -1.8734   -0.2198 H   0  0  0  0  0  0  0  0  0  0  0  0
    0.7795   -2.8042   -0.3311 H   0  0  0  0  0  0  0  0  0  0  0  0
    2.7540   -1.3417   -0.1489 H   0  0  0  0  0  0  0  0  0  0  0  0
    0.1924    2.0393    0.2613 H   0  0  0  0  0  0  0  0  0  0  0  0
    3.4641    0.8050    0.1157 H   0  0  0  0  0  0  0  0  0  0  0  0
  1  2  1  0  0  0  0
  2  3  1  0  0  0  0
  3  4  4  0  0  0  0
  4  5  4  0  0  0  0
  5  6  4  0  0  0  0
  6  7  4  0  0  0  0
  3  8  4  0  0  0  0
  7  8  4  0  0  0  0
  7  9  1  0  0  0  0
  1 10  1  0  0  0  0
  1 11  1  0  0  0  0
  1 12  1  0  0  0  0
  2 13  1  0  0  0  0
  2 14  1  0  0  0  0
  4 15  1  0  0  0  0
  5 16  1  0  0  0  0
  6 17  1  0  0  0  0
  8 18  1  0  0  0  0
  9 19  1  0  0  0  0
M  END
