22
CONF1
C -3.9067120791 -1.5107250586 0.0682710022
C -2.9900134242 -1.9683192108 -0.8633944305
C -1.7036597170 -1.4613277515 -0.8780273378
C -1.3234932345 -0.4812372853 0.0338129445
C -2.2476735709 -0.0303048022 0.9709162900
C -3.5310061608 -0.5453229417 0.9871683126
C 0.0521564562 0.0482722269 0.0097349848
C 1.1255242974 -0.8354465930 0.0743382561
C 2.4265336089 -0.3648970554 0.0592944984
C 2.6902592093 0.9933422105 -0.0266536623
C 1.6325968061 1.8802221031 -0.1050423811
C 0.3279942476 1.4126606308 -0.0866114285
Cl -0.9607647793 2.5564144737 -0.2388888713
Cl 3.7373287277 -1.4863385903 0.1496139637
H -4.9110168761 -1.9072774557 0.0795626154
H -3.2781115381 -2.7220523039 -1.5813504491
H -0.9897983877 -1.8094993376 -1.6104248300
H -1.9536397067 0.7122576408 1.6975218443
H -4.2406012028 -0.1911890446 1.7203460921
H 0.9332720574 -1.8944795369 0.1505896656
H 3.7070821464 1.3514267972 -0.0369787001
H 1.8175674499 2.9397257853 -0.1844246433
