22
CONF2
C 0.7405186600 0.0002210583 -0.0034983418
C 1.4511508612 0.8307626439 -0.8703048841
C 2.8473946208 0.8378334875 -0.8787643090
C 3.5434726824 0.0012004258 0.0010570379
C 2.8451748032 -0.8363909039 0.8782043014
C 1.4490040983 -0.8303928404 0.8651135623
Cl 0.5596620574 -1.8642939353 1.9354214282
Cl 3.7032324772 -1.8688212128 1.9647752349
Cl 5.2702799282 0.0024101436 0.0044576600
Cl 3.7083164104 1.8708654449 -1.9624928633
Cl 0.5644131843 1.8639461027 -1.9434282643
C -0.7405146315 0.0009112476 -0.0035071433
C -1.4491805136 0.8312329780 0.8652243808
C -2.8453534968 0.8364208312 0.8787836892
C -3.5434665939 -0.0016643060 0.0019598319
C -2.8472052654 -0.8378310723 -0.8781587767
C -1.4509663156 -0.8299468839 -0.8701712600
Cl -0.5640070035 -1.8626392068 -1.9435924138
Cl -3.7078871393 -1.8713875088 -1.9615760266
Cl -5.2702713873 -0.0041165207 0.0061500362
Cl -3.7036475938 1.8683650096 1.9656302762
Cl -0.5600626179 1.8656536393 1.9352079021
