23
CONF1
C 4.5018751462 -0.2893075395 0.0432587045
C 3.9520615005 0.8243141313 0.6708777875
C 2.5809959577 1.0456246832 0.6306941049
C 1.7610145506 0.1473852749 -0.0480221318
C 2.2994571798 -0.9688503250 -0.6839090636
C 3.6723020930 -1.1795700628 -0.6319866904
N 0.3499029641 0.4099439811 -0.1066022373
C -0.5858474882 -0.6548800439 0.1261464527
O -0.2142043577 -1.7927007445 0.3591484661
C -1.9548803796 -0.2114403715 0.0615760795
C -2.3071511429 1.0993289157 -0.1566571301
C -1.2298052067 2.0231639612 -0.3223356545
N 0.0266632137 1.6906474758 -0.2953020058
N -3.5965730056 1.5370257506 -0.2668954315
Cl -3.1793900675 -1.4169260183 0.3103876721
H 5.5721723356 -0.4629693747 0.0804900487
H 4.5904510148 1.5234086210 1.2010023008
H 2.1424152191 1.9098935415 1.1148989081
H 1.6544989270 -1.6628680007 -1.2050916333
H 4.0939676862 -2.0477835948 -1.1275076667
H -1.4328156071 3.0768963417 -0.4968570431
H -3.7667881158 2.5195964367 -0.1309888037
H -4.3216020176 0.9199171282 0.0650068655
