 xtb: 6.7.1 (edcfbbe)
          04152519153D

 21 21  0     0  0            999 V2000
    1.9515   -0.0001   -0.7620 C   0  0  0  0  0  0  0  0  0  0  0  0
    1.1124   -0.0001    0.5144 C   0  0  0  0  0  0  0  0  0  0  0  0
    0.2385    1.2535    0.6294 C   0  0  0  0  0  0  0  0  0  0  0  0
   -0.9168    1.2519   -0.3679 C   0  0  0  0  0  0  0  0  0  0  0  0
   -1.7705    0.0001   -0.1948 C   0  0  0  0  0  0  0  0  0  0  0  0
   -0.9169   -1.2517   -0.3681 C   0  0  0  0  0  0  0  0  0  0  0  0
    0.2383   -1.2536    0.6292 C   0  0  0  0  0  0  0  0  0  0  0  0
    2.5883    0.8817   -0.7929 H   0  0  0  0  0  0  0  0  0  0  0  0
    2.5881   -0.8820   -0.7931 H   0  0  0  0  0  0  0  0  0  0  0  0
    1.3285    0.0001   -1.6512 H   0  0  0  0  0  0  0  0  0  0  0  0
    1.8107   -0.0002    1.3611 H   0  0  0  0  0  0  0  0  0  0  0  0
   -0.1733    1.3006    1.6410 H   0  0  0  0  0  0  0  0  0  0  0  0
    0.8543    2.1435    0.4811 H   0  0  0  0  0  0  0  0  0  0  0  0
   -1.5293    2.1436   -0.2149 H   0  0  0  0  0  0  0  0  0  0  0  0
   -0.5292    1.2910   -1.3873 H   0  0  0  0  0  0  0  0  0  0  0  0
   -2.2127    0.0001    0.8047 H   0  0  0  0  0  0  0  0  0  0  0  0
   -2.5862    0.0002   -0.9213 H   0  0  0  0  0  0  0  0  0  0  0  0
   -1.5295   -2.1433   -0.2152 H   0  0  0  0  0  0  0  0  0  0  0  0
   -0.5293   -1.2907   -1.3875 H   0  0  0  0  0  0  0  0  0  0  0  0
   -0.1735   -1.3008    1.6408 H   0  0  0  0  0  0  0  0  0  0  0  0
    0.8540   -2.1437    0.4808 H   0  0  0  0  0  0  0  0  0  0  0  0
  1  2  1  0  0  0  0
  2  3  1  0  0  0  0
  3  4  1  0  0  0  0
  4  5  1  0  0  0  0
  5  6  1  0  0  0  0
  2  7  1  0  0  0  0
  6  7  1  0  0  0  0
  1  8  1  0  0  0  0
  1  9  1  0  0  0  0
  1 10  1  0  0  0  0
  2 11  1  0  0  0  0
  3 12  1  0  0  0  0
  3 13  1  0  0  0  0
  4 14  1  0  0  0  0
  4 15  1  0  0  0  0
  5 16  1  0  0  0  0
  5 17  1  0  0  0  0
  6 18  1  0  0  0  0
  6 19  1  0  0  0  0
  7 20  1  0  0  0  0
  7 21  1  0  0  0  0
M  END
