24
 xtb: 6.7.1 (edcfbbe)
C           -3.22022005194202        0.10260039750539        1.00663285766425
O           -1.79803036675869        0.22081248137845        0.80390553130880
C           -1.36648203770562       -0.13732797942364       -0.43136157353005
O           -2.11028361361140       -0.51978728455012       -1.30598973722718
C            0.13674685251829       -0.04047461637985       -0.54564907267495
C            0.78819182835870       -1.25606681071125        0.14479038779976
C            2.30970778115737       -1.21556995005048       -0.01132800740269
C            2.88840871033283        0.09514816780078        0.52495447557184
C            2.23379366840580        1.30085744883472       -0.15291996484895
C            0.71295283996024        1.26798256804740        0.01351087617863
H           -3.39773192115465        0.42882245727677        2.03181170107609
H           -3.54012342282115       -0.93397587511485        0.86935367493063
H           -3.76068481834530        0.73799403163393        0.29974031115344
H            0.34919066279871       -0.10059919627931       -1.61997159288043
H            0.52429021498758       -1.23822585777723        1.21020074104349
H            0.38258734707549       -2.18204842064337       -0.27847658424558
H            2.75740070499312       -2.07228780285555        0.50504743907727
H            2.56616926327704       -1.31697329086266       -1.07495378305698
H            2.71139770658542        0.15111664450251        1.60798377016362
H            3.97423860151577        0.11857917168388        0.37901274488386
H            2.63261979188670        2.23410905457002        0.26038093462692
H            2.48455956822650        1.29545396693217       -1.22282272089860
H            0.45738427880588        1.34661281876509        1.07657922777158
H            0.25240758662739        2.12471642601110       -0.49208054490116
