 xtb: 6.7.1 (edcfbbe)
          04162511253D

 24 24  0     0  0            999 V2000
   -2.0357   -0.5932   -0.6489 C   0  0  0  0  0  0  0  0  0  0  0  0
   -1.2072   -0.0724    0.5536 C   0  0  0  0  0  0  0  0  0  0  0  0
   -1.8534   -0.0093    1.4375 H   0  0  0  0  0  0  0  0  0  0  0  0
   -0.6305    1.3358    0.2995 C   0  0  0  0  0  0  0  0  0  0  0  0
   -1.3746    1.9095   -0.2643 H   0  0  0  0  0  0  0  0  0  0  0  0
    0.6803    1.2962   -0.5239 C   0  0  0  0  0  0  0  0  0  0  0  0
    1.1349    2.2920   -0.4421 H   0  0  0  0  0  0  0  0  0  0  0  0
    1.6467    0.2646    0.0814 C   0  0  0  0  0  0  0  0  0  0  0  0
    2.5081    0.1496   -0.5939 H   0  0  0  0  0  0  0  0  0  0  0  0
    0.9331   -1.0985    0.1821 C   0  0  0  0  0  0  0  0  0  0  0  0
    1.5710   -1.8094    0.7417 H   0  0  0  0  0  0  0  0  0  0  0  0
   -0.2244   -1.0252    0.9544 O   0  0  0  0  0  0  0  0  0  0  0  0
    0.7113   -1.5802   -1.1137 O   0  0  0  0  0  0  0  0  0  0  0  0
    2.0502    0.7188    1.3516 O   0  0  0  0  0  0  0  0  0  0  0  0
    0.4642    1.0520   -1.8855 O   0  0  0  0  0  0  0  0  0  0  0  0
   -0.4383    2.0218    1.5060 O   0  0  0  0  0  0  0  0  0  0  0  0
   -2.0015   -2.0018   -0.7324 O   0  0  0  0  0  0  0  0  0  0  0  0
   -1.6338   -0.2265   -1.5949 H   0  0  0  0  0  0  0  0  0  0  0  0
   -3.0672   -0.2344   -0.5492 H   0  0  0  0  0  0  0  0  0  0  0  0
   -0.1232   -2.0889   -1.1103 H   0  0  0  0  0  0  0  0  0  0  0  0
    2.6184    0.0582    1.7641 H   0  0  0  0  0  0  0  0  0  0  0  0
    0.5131    0.0917   -2.0313 H   0  0  0  0  0  0  0  0  0  0  0  0
    0.3715    1.6813    1.9156 H   0  0  0  0  0  0  0  0  0  0  0  0
   -2.2513   -2.3655    0.1260 H   0  0  0  0  0  0  0  0  0  0  0  0
  1  2  1  0  0  0  0
  2  3  1  0  0  0  0
  2  4  1  0  0  0  0
  4  5  1  0  0  0  0
  4  6  1  0  0  0  0
  6  7  1  0  0  0  0
  6  8  1  0  0  0  0
  8  9  1  0  0  0  0
  8 10  1  0  0  0  0
 10 11  1  0  0  0  0
  2 12  1  0  0  0  0
 10 12  1  0  0  0  0
 10 13  1  0  0  0  0
  8 14  1  0  0  0  0
  6 15  1  0  0  0  0
  4 16  1  0  0  0  0
  1 17  1  0  0  0  0
  1 18  1  0  0  0  0
  1 19  1  0  0  0  0
 13 20  1  0  0  0  0
 14 21  1  0  0  0  0
 15 22  1  0  0  0  0
 16 23  1  0  0  0  0
 17 24  1  0  0  0  0
M  END
