 xtb: 6.7.1 (edcfbbe)
          04152519403D

 23 22  0     0  0            999 V2000
   -2.3982    0.6558   -0.4100 C   0  0  0  0  0  0  0  0  0  0  0  0
   -1.7593   -0.3445    0.5465 C   0  0  0  0  0  0  0  0  0  0  0  0
   -0.4399   -0.9625    0.0718 C   0  0  0  0  0  0  0  0  0  0  0  0
    0.8138   -0.0659   -0.0179 C   0  0  0  0  0  0  0  0  0  0  0  0
    0.8429    0.7385   -1.3203 C   0  0  0  0  0  0  0  0  0  0  0  0
    0.9135    0.8848    1.1761 C   0  0  0  0  0  0  0  0  0  0  0  0
    2.0394   -0.9900   -0.0103 C   0  0  0  0  0  0  0  0  0  0  0  0
   -1.8613    1.6003   -0.4181 H   0  0  0  0  0  0  0  0  0  0  0  0
   -2.4191    0.2588   -1.4225 H   0  0  0  0  0  0  0  0  0  0  0  0
   -3.4221    0.8605   -0.1025 H   0  0  0  0  0  0  0  0  0  0  0  0
   -1.6212    0.1230    1.5222 H   0  0  0  0  0  0  0  0  0  0  0  0
   -2.4604   -1.1727    0.6857 H   0  0  0  0  0  0  0  0  0  0  0  0
   -0.6040   -1.4197   -0.9073 H   0  0  0  0  0  0  0  0  0  0  0  0
   -0.2106   -1.7730    0.7694 H   0  0  0  0  0  0  0  0  0  0  0  0
    0.7756    0.0748   -2.1798 H   0  0  0  0  0  0  0  0  0  0  0  0
    0.0246    1.4485   -1.3719 H   0  0  0  0  0  0  0  0  0  0  0  0
    1.7759    1.2944   -1.3935 H   0  0  0  0  0  0  0  0  0  0  0  0
    1.8707    1.4023    1.1604 H   0  0  0  0  0  0  0  0  0  0  0  0
    0.8399    0.3342    2.1115 H   0  0  0  0  0  0  0  0  0  0  0  0
    0.1267    1.6337    1.1497 H   0  0  0  0  0  0  0  0  0  0  0  0
    1.9763   -1.7148   -0.8193 H   0  0  0  0  0  0  0  0  0  0  0  0
    2.9534   -0.4141   -0.1390 H   0  0  0  0  0  0  0  0  0  0  0  0
    2.1090   -1.5321    0.9305 H   0  0  0  0  0  0  0  0  0  0  0  0
  1  2  1  0  0  0  0
  2  3  1  0  0  0  0
  3  4  1  0  0  0  0
  4  5  1  0  0  0  0
  4  6  1  0  0  0  0
  4  7  1  0  0  0  0
  1  8  1  0  0  0  0
  1  9  1  0  0  0  0
  1 10  1  0  0  0  0
  2 11  1  0  0  0  0
  2 12  1  0  0  0  0
  3 13  1  0  0  0  0
  3 14  1  0  0  0  0
  5 15  1  0  0  0  0
  5 16  1  0  0  0  0
  5 17  1  0  0  0  0
  6 18  1  0  0  0  0
  6 19  1  0  0  0  0
  6 20  1  0  0  0  0
  7 21  1  0  0  0  0
  7 22  1  0  0  0  0
  7 23  1  0  0  0  0
M  END
