 xtb: 6.7.1 (edcfbbe)
          04152519473D

 19 19  0     0  0            999 V2000
   -2.6497   -0.5136    0.7981 C   0  0  0  0  0  0  0  0  0  0  0  0
   -1.8365   -0.7082   -0.4853 C   0  0  0  0  0  0  0  0  0  0  0  0
   -0.3752   -0.4152   -0.2590 C   0  0  0  0  0  0  0  0  0  0  0  0
    0.5213   -1.4529   -0.0448 C   0  0  0  0  0  0  0  0  0  0  0  0
    1.8623   -1.2130    0.1920 C   0  0  0  0  0  0  0  0  0  0  0  0
    2.3298    0.0897    0.2172 C   0  0  0  0  0  0  0  0  0  0  0  0
    1.4573    1.1388    0.0085 C   0  0  0  0  0  0  0  0  0  0  0  0
    0.1077    0.8962   -0.2243 C   0  0  0  0  0  0  0  0  0  0  0  0
   -0.6948    1.9814   -0.4140 O   0  0  0  0  0  0  0  0  0  0  0  0
   -2.2961   -1.1962    1.5674 H   0  0  0  0  0  0  0  0  0  0  0  0
   -3.7036   -0.7136    0.6158 H   0  0  0  0  0  0  0  0  0  0  0  0
   -2.5514    0.5007    1.1805 H   0  0  0  0  0  0  0  0  0  0  0  0
   -2.2414   -0.0741   -1.2820 H   0  0  0  0  0  0  0  0  0  0  0  0
   -1.9422   -1.7426   -0.8175 H   0  0  0  0  0  0  0  0  0  0  0  0
    0.1552   -2.4697   -0.0672 H   0  0  0  0  0  0  0  0  0  0  0  0
    2.5384   -2.0387    0.3545 H   0  0  0  0  0  0  0  0  0  0  0  0
    3.3749    0.2903    0.3996 H   0  0  0  0  0  0  0  0  0  0  0  0
    1.7955    2.1629    0.0241 H   0  0  0  0  0  0  0  0  0  0  0  0
   -1.6009    1.6927   -0.5734 H   0  0  0  0  0  0  0  0  0  0  0  0
  1  2  1  0  0  0  0
  2  3  1  0  0  0  0
  3  4  4  0  0  0  0
  4  5  4  0  0  0  0
  5  6  4  0  0  0  0
  6  7  4  0  0  0  0
  3  8  4  0  0  0  0
  7  8  4  0  0  0  0
  8  9  1  0  0  0  0
  1 10  1  0  0  0  0
  1 11  1  0  0  0  0
  1 12  1  0  0  0  0
  2 13  1  0  0  0  0
  2 14  1  0  0  0  0
  4 15  1  0  0  0  0
  5 16  1  0  0  0  0
  6 17  1  0  0  0  0
  7 18  1  0  0  0  0
  9 19  1  0  0  0  0
M  END
