24
 xtb: 6.7.1 (edcfbbe)
C           -2.41130947998898        0.00013656519161        0.53548706999492
C           -1.38372180746127        0.00008088038269       -0.60078958937645
C           -0.49926219428622        1.25846189292844       -0.58151947940597
C            0.49936710287288        1.25849058894229        0.58140539761434
C            1.38359318921755       -0.00006482208929        0.60078248444960
C            0.49929041720458       -1.25857124627930        0.58134853235726
C           -0.49942709064898       -1.25842335460928       -0.58151454363504
C            2.41150398222516       -0.00007710160690       -0.53520252356774
H           -3.05371593241340       -0.88508458369208        0.47796220744047
H           -1.93970112100680       -0.00054413310733        1.52268695078193
H           -3.05278552724913        0.88608396656371        0.47873526400089
H           -1.94552738028767        0.00012368999167       -1.54501429712378
H            0.04736624108239        1.32290284583647       -1.53113701749284
H           -1.12974848238559        2.15484468665771       -0.52867936715311
H            1.12999395727848        2.15477370828052        0.52848815437918
H           -0.04728465144291        1.32311577983205        1.53099392588213
H            1.94516679899852       -0.00010000545220        1.54514208963366
H            1.12986232501730       -2.15488665214696        0.52831161266489
H           -0.04728339278387       -1.32325005658027        1.53097558591268
H            0.04712370265837       -1.32297467156597       -1.53116795804739
H           -1.13002367646110       -2.15472516434168       -0.52859810012312
H            3.05361480864113       -0.88551467206939       -0.47769619391066
H            3.05324957742307        0.88565097727811       -0.47806902281769
H            1.94015473410100       -0.00038359450884       -1.52252530459063
