16
 xtb: 6.7.1 (edcfbbe)
C            0.72869109179133       -1.20680268003359        0.23917434321396
C           -0.72142741777244       -1.20681104173309       -0.24384122935250
N           -1.46151408758872        0.00000503874193        0.15083243753920
C           -0.72141171100023        1.20681494892885       -0.24383052340856
C            0.72870347665822        1.20678755848945        0.23919333517207
N            1.39581809521396       -0.00000696353196       -0.26075082771552
H            1.25479731235742       -2.09044855634625       -0.14364956304719
H            0.73348847330504       -1.26570525269854        1.34776684244624
H           -0.73040004549152       -1.26314650952612       -1.34049940325757
H           -1.24924445872521       -2.08782993444256        0.13977251656605
H           -1.55883798025918        0.00000125275273        1.16340561119964
H           -0.73037592717528        1.26315519683476       -1.34048893563654
H           -1.24922112389978        2.08783860204884        0.13978276703241
H            1.25482209104299        2.09043445350878       -0.14361068589460
H            0.73349406969332        1.26566850909731        1.34778710579668
H            2.36648737498795       -0.00001419534358        0.03002635163463
