8
CONF1
C -0.6377465671 -0.9119316222 0.3973166206
C 0.3918717255 -0.1261567085 -0.3784856924
Cl 2.0150939056 -0.8343056123 0.0140963154
Cl 0.3733690822 1.6273118711 0.0501256367
Cl -2.3120871402 -0.3694405638 -0.0594350416
H -0.5634703740 -1.9671181588 0.1276198118
H -0.5248176521 -0.7813604739 1.4743361551
H 0.2626117306 -0.1969869833 -1.4586478292
