20
CONF1
C -3.6665109169 -0.0335649808 -0.0136699067
C -2.1646875153 -0.0204324743 0.0096086223
C -1.4334733992 -1.2102096450 0.0079783690
C -0.0439683355 -1.1950506038 0.0013993270
C 0.6537289460 0.0168038000 -0.0014085158
C -0.0769364107 1.2114666687 0.0020111748
C -1.4610381445 1.1907475067 0.0090622932
C 2.1443328570 0.0910312687 -0.0023384778
O 2.7159505626 1.1683305788 -0.0056757464
C 2.9322027176 -1.2020073787 -0.0022353339
H -4.0638645520 -0.9875035450 0.3418066540
H -4.0795345285 0.7673218257 0.6062824376
H -4.0368402940 0.1210879884 -1.0342374841
H -1.9604520269 -2.1603088586 0.0132364774
H 0.4924466555 -2.1379431271 0.0025546157
H 0.4713014405 2.1475790867 0.0038350647
H -2.0138971563 2.1264333904 0.0155847109
H 2.6917950137 -1.8035191468 0.8811496048
H 3.9960539328 -0.9658683546 -0.0037335600
H 2.6898548264 -1.8058807460 -0.8835216132
20
CONF2
C -3.6629998983 -0.0398798013 -0.0111286239
C -2.1613259235 -0.0135566853 -0.0307898614
C -1.4224898445 -1.1984225120 -0.0721146855
C -0.0342420905 -1.1738553563 -0.1160677464
C 0.6553260752 0.0430603364 -0.1180469085
C -0.0827710929 1.2320219099 -0.0776992000
C -1.4662769979 1.2017765498 -0.0330285174
C 2.1447334957 0.1296960550 -0.1543007538
O 2.7070629787 1.2119485900 -0.1674549534
C 2.9441517600 -1.1560681336 -0.1750898197
H -4.0402629400 -0.9523287882 0.4577912378
H -4.0676486689 0.8208296777 0.5279388404
H -4.0617891378 -0.0043725329 -1.0320004237
H -1.9431410705 -2.1520381825 -0.0676633019
H 0.5083987604 -2.1127481408 -0.1445634485
H 0.4590164811 2.1718206677 -0.0768518008
H -2.0244577496 2.1334030875 0.0034575686
H 4.0057675813 -0.9089425451 -0.1791130475
H 2.7039298273 -1.7481910912 -1.0653901737
H 2.7141145038 -1.7736013721 0.6999495521
