13
CONF1
C -0.7325892200 -1.2094166529 -0.0000224502
C 0.6597728219 -1.2131378831 -0.0000081854
C 1.3295722930 -0.0024995502 0.0000143788
C 0.6560859976 1.2086331994 0.0000319625
C -0.7332426934 1.2076647832 0.0000153614
C -1.4292454485 -0.0009553697 -0.0000181911
O -2.7967141857 0.0649661907 -0.0000396223
F 2.6845943051 -0.0009645061 0.0000231718
H -1.2730661312 -2.1526675265 -0.0000336903
H 1.2197463102 -2.1415086052 -0.0000110894
H 1.2169154205 2.1366132937 0.0000562608
H -1.2904402165 2.1379265579 0.0000262085
H -3.1573649222 -0.8282752085 -0.0001242843
