 xtb: 6.7.1 (edcfbbe)
          04162509493D

 31 31  0     0  0            999 V2000
    3.7285   -0.3042   -0.1443 C   0  0  0  0  0  0  0  0  0  0  0  0
    2.2859   -0.1616    0.3327 C   0  0  0  0  0  0  0  0  0  0  0  0
    2.2930    0.1129    1.3935 H   0  0  0  0  0  0  0  0  0  0  0  0
    1.5164   -1.4709    0.1761 C   0  0  0  0  0  0  0  0  0  0  0  0
    0.0751   -1.3180    0.6546 C   0  0  0  0  0  0  0  0  0  0  0  0
   -0.6677   -0.2430   -0.1443 C   0  0  0  0  0  0  0  0  0  0  0  0
   -0.6409   -0.5380   -1.2010 H   0  0  0  0  0  0  0  0  0  0  0  0
    0.1034    1.0852   -0.0001 C   0  0  0  0  0  0  0  0  0  0  0  0
    0.0777    1.3922    1.0520 H   0  0  0  0  0  0  0  0  0  0  0  0
    1.5602    0.9312   -0.4474 C   0  0  0  0  0  0  0  0  0  0  0  0
   -0.5116    2.1513   -0.6923 O   0  0  0  0  0  0  0  0  0  0  0  0
   -2.1500   -0.0461    0.2673 C   0  0  0  0  0  0  0  0  0  0  0  0
   -3.0068    0.2639   -0.9615 C   0  0  0  0  0  0  0  0  0  0  0  0
   -2.7678   -1.2322    1.0074 C   0  0  0  0  0  0  0  0  0  0  0  0
    3.7566   -0.5661   -1.2001 H   0  0  0  0  0  0  0  0  0  0  0  0
    4.2706    0.6288   -0.0080 H   0  0  0  0  0  0  0  0  0  0  0  0
    4.2402   -1.0840    0.4152 H   0  0  0  0  0  0  0  0  0  0  0  0
    1.5236   -1.7697   -0.8753 H   0  0  0  0  0  0  0  0  0  0  0  0
    2.0082   -2.2605    0.7485 H   0  0  0  0  0  0  0  0  0  0  0  0
   -0.4333   -2.2760    0.5470 H   0  0  0  0  0  0  0  0  0  0  0  0
    0.0777   -1.0494    1.7130 H   0  0  0  0  0  0  0  0  0  0  0  0
    1.5791    0.6858   -1.5143 H   0  0  0  0  0  0  0  0  0  0  0  0
    2.0674    1.8899   -0.3166 H   0  0  0  0  0  0  0  0  0  0  0  0
   -0.4257    1.9810   -1.6376 H   0  0  0  0  0  0  0  0  0  0  0  0
   -2.1949    0.8213    0.9344 H   0  0  0  0  0  0  0  0  0  0  0  0
   -4.0398    0.4359   -0.6668 H   0  0  0  0  0  0  0  0  0  0  0  0
   -2.9874   -0.5723   -1.6591 H   0  0  0  0  0  0  0  0  0  0  0  0
   -2.6490    1.1557   -1.4676 H   0  0  0  0  0  0  0  0  0  0  0  0
   -2.2476   -1.4413    1.9376 H   0  0  0  0  0  0  0  0  0  0  0  0
   -2.7592   -2.1270    0.3889 H   0  0  0  0  0  0  0  0  0  0  0  0
   -3.8033   -1.0013    1.2494 H   0  0  0  0  0  0  0  0  0  0  0  0
  1  2  1  0  0  0  0
  2  3  1  0  0  0  0
  2  4  1  0  0  0  0
  4  5  1  0  0  0  0
  5  6  1  0  0  0  0
  6  7  1  0  0  0  0
  6  8  1  0  0  0  0
  8  9  1  0  0  0  0
  2 10  1  0  0  0  0
  8 10  1  0  0  0  0
  8 11  1  0  0  0  0
  6 12  1  0  0  0  0
 12 13  1  0  0  0  0
 12 14  1  0  0  0  0
  1 15  1  0  0  0  0
  1 16  1  0  0  0  0
  1 17  1  0  0  0  0
  4 18  1  0  0  0  0
  4 19  1  0  0  0  0
  5 20  1  0  0  0  0
  5 21  1  0  0  0  0
 10 22  1  0  0  0  0
 10 23  1  0  0  0  0
 11 24  1  0  0  0  0
 12 25  1  0  0  0  0
 13 26  1  0  0  0  0
 13 27  1  0  0  0  0
 13 28  1  0  0  0  0
 14 29  1  0  0  0  0
 14 30  1  0  0  0  0
 14 31  1  0  0  0  0
M  END
