22
CONF1
C 4.3843913459 1.3973321542 -0.0005518842
C 3.1011853208 1.9376061348 0.0004016425
C 2.0015421146 1.0989937961 0.0013188843
C 2.1702395283 -0.2794607498 0.0012887787
C 3.4350257671 -0.8411388930 0.0002532427
C 4.5299266714 0.0166116626 -0.0006408402
Cl 6.1427514816 -0.6774552578 -0.0019381571
O 1.0881213699 -1.1468115958 0.0024188689
C -0.1545567154 -0.5670700217 0.0014435922
C -0.3245989310 0.8158479351 0.0013661645
C -1.6055674089 1.3591552148 0.0003767382
C -2.7272133099 0.5220505776 -0.0003814346
C -2.5567170238 -0.8638976867 -0.0002097354
C -1.2654386163 -1.4046106904 0.0006333883
Cl -1.0107861004 -3.1174299652 0.0007857278
Cl -3.9307172612 -1.9158488658 -0.0010621900
Cl -4.3149947246 1.2098048571 -0.0015154715
Cl -1.7719812861 3.0828531860 0.0002220852
O 0.7395820898 1.6784267726 0.0023764062
H 5.2492869808 2.0493041382 -0.0012423286
H 2.9504188197 3.0115947226 0.0004706521
H 3.5429952788 -1.9194532821 0.0002049350
