13
CONF1
C 1.3380206818 1.3292863599 0.0000125211
C -0.0289544245 1.1190986931 0.0000044886
C -0.4941979173 -0.1998630377 0.0001496041
C 0.4373628340 -1.2402273140 0.0000673249
N 1.7609721112 -1.0503515503 -0.0000361037
C 2.1858142753 0.2226337298 -0.0000270024
C -1.9232291861 -0.5258202298 0.0006650048
O -2.8184933487 0.3093911117 -0.0000889383
H 1.7549523787 2.3300151345 0.0000584422
H -0.7312160894 1.9464067283 0.0001250224
H 0.0900198837 -2.2720623672 0.0000328785
H 3.2633250318 0.3682983389 -0.0000686600
H -2.1615766047 -1.6067048485 -0.0005860231
