 xtb: 6.7.1 (edcfbbe)
          04152521333D

 24 24  0     0  0            999 V2000
   -3.5658   -0.1688   -0.4020 C   0  0  0  0  0  0  0  0  0  0  0  0
   -2.2040   -0.0220   -0.7817 O   0  0  0  0  0  0  0  0  0  0  0  0
   -1.3100   -0.0002    0.2161 C   0  0  0  0  0  0  0  0  0  0  0  0
   -1.6127   -0.0893    1.3769 O   0  0  0  0  0  0  0  0  0  0  0  0
    0.1013    0.1229   -0.3140 C   0  0  0  0  0  0  0  0  0  0  0  0
    0.7970   -1.2359   -0.1548 C   0  0  0  0  0  0  0  0  0  0  0  0
    2.2466   -1.1519   -0.6211 C   0  0  0  0  0  0  0  0  0  0  0  0
    2.9992   -0.0821    0.1633 C   0  0  0  0  0  0  0  0  0  0  0  0
    2.3142    1.2711    0.0022 C   0  0  0  0  0  0  0  0  0  0  0  0
    0.8635    1.1970    0.4659 C   0  0  0  0  0  0  0  0  0  0  0  0
   -3.8680    0.6557    0.2468 H   0  0  0  0  0  0  0  0  0  0  0  0
   -3.7093   -1.1082    0.1356 H   0  0  0  0  0  0  0  0  0  0  0  0
   -4.1423   -0.1626   -1.3233 H   0  0  0  0  0  0  0  0  0  0  0  0
    0.0502    0.3856   -1.3743 H   0  0  0  0  0  0  0  0  0  0  0  0
    0.7636   -1.5240    0.8980 H   0  0  0  0  0  0  0  0  0  0  0  0
    0.2610   -1.9929   -0.7316 H   0  0  0  0  0  0  0  0  0  0  0  0
    2.7292   -2.1222   -0.4882 H   0  0  0  0  0  0  0  0  0  0  0  0
    2.2720   -0.9075   -1.6856 H   0  0  0  0  0  0  0  0  0  0  0  0
    3.0176   -0.3546    1.2206 H   0  0  0  0  0  0  0  0  0  0  0  0
    4.0319   -0.0213   -0.1862 H   0  0  0  0  0  0  0  0  0  0  0  0
    2.8447    2.0294    0.5811 H   0  0  0  0  0  0  0  0  0  0  0  0
    2.3446    1.5699   -1.0484 H   0  0  0  0  0  0  0  0  0  0  0  0
    0.8225    0.9489    1.5281 H   0  0  0  0  0  0  0  0  0  0  0  0
    0.3770    2.1652    0.3285 H   0  0  0  0  0  0  0  0  0  0  0  0
  1  2  1  0  0  0  0
  2  3  1  0  0  0  0
  3  4  2  0  0  0  0
  3  5  1  0  0  0  0
  5  6  1  0  0  0  0
  6  7  1  0  0  0  0
  7  8  1  0  0  0  0
  8  9  1  0  0  0  0
  5 10  1  0  0  0  0
  9 10  1  0  0  0  0
  1 11  1  0  0  0  0
  1 12  1  0  0  0  0
  1 13  1  0  0  0  0
  5 14  1  0  0  0  0
  6 15  1  0  0  0  0
  6 16  1  0  0  0  0
  7 17  1  0  0  0  0
  7 18  1  0  0  0  0
  8 19  1  0  0  0  0
  8 20  1  0  0  0  0
  9 21  1  0  0  0  0
  9 22  1  0  0  0  0
 10 23  1  0  0  0  0
 10 24  1  0  0  0  0
M  END
