 xtb: 6.7.1 (edcfbbe)
          04162511403D

 26 27  0     0  0            999 V2000
   -3.9829   -0.8603    1.0452 C   0  0  0  0  0  0  0  0  0  0  0  0
   -3.3152   -0.9455   -0.2305 N   0  0  0  0  0  0  0  0  0  0  0  0
   -2.1492   -0.3474   -0.5639 C   0  0  0  0  0  0  0  0  0  0  0  0
   -1.6808   -0.3729   -1.6734 O   0  0  0  0  0  0  0  0  0  0  0  0
   -1.5743    0.2645    0.5037 O   0  0  0  0  0  0  0  0  0  0  0  0
   -0.3069    0.8097    0.3045 C   0  0  0  0  0  0  0  0  0  0  0  0
   -0.1769    2.1715    0.2657 C   0  0  0  0  0  0  0  0  0  0  0  0
    1.0890    2.7524    0.1075 C   0  0  0  0  0  0  0  0  0  0  0  0
    2.1980    1.9658   -0.0222 C   0  0  0  0  0  0  0  0  0  0  0  0
    2.0935    0.5597    0.0146 C   0  0  0  0  0  0  0  0  0  0  0  0
    0.8189   -0.0422    0.1890 C   0  0  0  0  0  0  0  0  0  0  0  0
    0.7255   -1.4477    0.2469 C   0  0  0  0  0  0  0  0  0  0  0  0
    1.8423   -2.2249    0.1190 C   0  0  0  0  0  0  0  0  0  0  0  0
    3.1011   -1.6344   -0.0671 C   0  0  0  0  0  0  0  0  0  0  0  0
    3.2237   -0.2742   -0.1141 C   0  0  0  0  0  0  0  0  0  0  0  0
   -4.7695   -0.1003    1.0341 H   0  0  0  0  0  0  0  0  0  0  0  0
   -3.2533   -0.5992    1.8077 H   0  0  0  0  0  0  0  0  0  0  0  0
   -4.4270   -1.8258    1.2879 H   0  0  0  0  0  0  0  0  0  0  0  0
   -3.8318   -1.3264   -1.0081 H   0  0  0  0  0  0  0  0  0  0  0  0
   -1.0557    2.7919    0.3544 H   0  0  0  0  0  0  0  0  0  0  0  0
    1.1720    3.8284    0.0786 H   0  0  0  0  0  0  0  0  0  0  0  0
    3.1740    2.4091   -0.1561 H   0  0  0  0  0  0  0  0  0  0  0  0
   -0.2416   -1.9060    0.3932 H   0  0  0  0  0  0  0  0  0  0  0  0
    1.7619   -3.3011    0.1607 H   0  0  0  0  0  0  0  0  0  0  0  0
    3.9722   -2.2649   -0.1700 H   0  0  0  0  0  0  0  0  0  0  0  0
    4.1917    0.1861   -0.2517 H   0  0  0  0  0  0  0  0  0  0  0  0
  1  2  1  0  0  0  0
  2  3  4  0  0  0  0
  3  4  2  0  0  0  0
  3  5  1  0  0  0  0
  5  6  1  0  0  0  0
  6  7  2  0  0  0  0
  7  8  4  0  0  0  0
  8  9  2  0  0  0  0
  9 10  4  0  0  0  0
  6 11  4  0  0  0  0
 10 11  4  0  0  0  0
 11 12  4  0  0  0  0
 12 13  2  0  0  0  0
 13 14  4  0  0  0  0
 10 15  4  0  0  0  0
 14 15  2  0  0  0  0
  1 16  1  0  0  0  0
  1 17  1  0  0  0  0
  1 18  1  0  0  0  0
  2 19  1  0  0  0  0
  7 20  1  0  0  0  0
  8 21  1  0  0  0  0
  9 22  1  0  0  0  0
 12 23  1  0  0  0  0
 13 24  1  0  0  0  0
 14 25  1  0  0  0  0
 15 26  1  0  0  0  0
M  END
