10
CONF1
C -1.3606305393 -0.8890870749 0.2235570101
S 0.0000264766 0.1807312361 -0.4318406954
O 0.0001822360 1.3818879195 0.4008363871
C 1.3603960023 -0.8894440165 0.2235635623
H -2.3017540872 -0.4044245529 -0.0146062761
H -1.2611523618 -0.9836669116 1.2989949416
H -1.3073388426 -1.8565025445 -0.2618072791
H 2.3016321816 -0.4050489827 -0.0147075690
H 1.3067602165 -1.8568682120 -0.2617365699
H 1.2609128393 -0.9838986287 1.2990118821
10
CONF2
C -1.3807958021 -0.8859803299 0.2227893420
S 0.0024331452 0.1759900820 -0.4306235765
O 0.0019805559 1.3782749762 0.4011529854
C 1.3749947550 -0.8806095751 0.2217510312
H -1.0028387148 -1.7720721084 0.7174624166
H -2.0077956021 -1.1693282025 -0.6158328984
H -1.9463558001 -0.2756595087 0.9178989945
H 2.3108338260 -0.3884970343 -0.0230450744
H 1.3261935222 -1.8491381855 -0.2626346403
H 1.2802584677 -0.9698543553 1.2983075329
