10
CONF1
C -1.2838687394 0.7001060898 -0.0050073965
C 0.0000007107 -0.1010177720 -0.0000349201
O -0.0001072432 -1.3138027026 -0.0001040955
C 1.2839901522 0.6999002663 0.0050424130
H -1.2379741191 1.5129707637 -0.7371598927
H -2.1344431762 0.0493188269 -0.2093449012
H -1.4161817345 1.1666797514 0.9786257931
H 2.1345555230 0.0488235936 0.2084845090
H 1.2384673078 1.5120763732 0.7379913341
H 1.4159664949 1.1674243555 -0.9781814667
