23
 xtb: 6.7.1 (edcfbbe)
C           -2.34433629204073       -1.02887077256151        0.41911932747061
C           -1.82131449561174        0.38902409803571        0.18106152575453
C           -0.56656857582922        0.51697598535048       -0.69475383202484
C            0.81721409588370        0.13431254767804       -0.11569918233770
C            1.87333828197823        0.58099150189905       -1.13975890652126
C            1.07352521685332        0.86266456302426        1.20910628378082
C            0.97151212149937       -1.37846163418076        0.09644925388685
H           -3.33944463331017       -0.99916726521839        0.87450038149192
H           -2.42694666817789       -1.57848793803818       -0.52511553031262
H           -1.70140309817272       -1.60903949844274        1.08378637329236
H           -2.61430480494093        0.95890695919701       -0.31948692450911
H           -1.66166427101508        0.89352254112078        1.14153141150007
H           -0.49407331521720        1.56882095331052       -1.00393396367420
H           -0.72210801221975       -0.05814094434057       -1.61889297707544
H            2.88160172867610        0.32310163870768       -0.79795411850842
H            1.71020957904748        0.09300511395028       -2.10724600075611
H            1.83621453884877        1.66441958873828       -1.29743352559786
H            2.09946237082781        0.68539627787407        1.55021677971829
H            0.39940073429139        0.51500156085972        1.99829262586563
H            0.93713928029959        1.94451740792315        1.09736070580013
H            0.34373626998055       -1.74549910767944        0.91098613087376
H            0.71115072130342       -1.93385227282212       -0.81131303673794
H            2.00986597028353       -1.61846538826573        0.35175455297755
