20
CONF3
C 0.6646664284 1.6806200421 -0.0343443466
C 1.4106496132 0.3686103331 -0.2606632485
H 1.6507389555 0.2538780266 -1.3242489621
C 0.5380456671 -0.7957931062 0.1811369652
H 0.3923589350 -0.7353791113 1.2730571773
C -0.8210843590 -0.7123404712 -0.5159032549
H -0.6692361938 -0.8358959497 -1.5938316461
C -1.4804907864 0.6507422225 -0.2956986554
H -2.3674095612 0.7550072148 -0.9304039998
O -0.6053358845 1.6924747152 -0.7133661981
O -1.8301224855 0.7510739804 1.0720661465
O -1.6786623400 -1.7821624472 -0.1132277387
O 1.2032916178 -2.0174550904 -0.1563121799
O 2.6673826647 0.3951325308 0.4252269425
H 1.2358723268 2.5148822999 -0.4470351302
H 0.5262347071 1.8458166790 1.0437680832
H -2.4981572094 1.4437021134 1.1609697369
H -1.8923852735 -1.6424671980 0.8207971098
H 0.6003338515 -2.7390919791 0.0713636618
H 2.4823145608 0.4736245826 1.3724089613
