20
 xtb: 6.7.1 (edcfbbe)
C           -2.97746611219638        1.26366925113213        0.00023467787368
C           -1.74959159823305        0.39380472085255       -0.00013846881434
C           -1.83854941398757       -0.99172707534336       -0.00020400950800
C           -0.68431477190605       -1.77757719522942       -0.00008075315097
C            0.57167194594010       -1.19369491574622        0.00006328319555
C            0.67916384773658        0.21155890707024        0.00006719566404
C           -0.47701711333472        0.98348236148471       -0.00003150704033
O            1.95090530601021        0.69923430799780        0.00008338100340
C            2.10552188255015        2.11261215275441       -0.00018520241192
O            1.73916131032006       -1.90710651849175        0.00011330287584
H           -3.88754823301132        0.65892779245563       -0.00403359657827
H           -3.00702590585892        1.90940706231345        0.88498144252874
H           -3.00296249817611        1.91594852252128       -0.87978972672485
H           -2.81096661729419       -1.47395644012757       -0.00035074440063
H           -0.76590966184697       -2.86227765366569       -0.00017694700155
H           -0.40359156575620        2.06526136259775       -0.00003800799941
H            3.18127583395969        2.29319487736857       -0.00032430282250
H            1.66019255358706        2.56459364586947        0.89626751259918
H            1.66001491816124        2.56426173701732       -0.89671552947826
H            1.51925860299725       -2.84529351768006        0.00007086915715
