 xtb: 6.7.1 (edcfbbe)
          04152519433D

 15 14  0     0  0            999 V2000
   -1.7526   -0.8017    0.0042 C   0  0  0  0  0  0  0  0  0  0  0  0
   -0.5022    0.0030   -0.3368 C   0  0  0  0  0  0  0  0  0  0  0  0
   -0.6373    1.4494    0.1317 C   0  0  0  0  0  0  0  0  0  0  0  0
    0.7364   -0.6458    0.2952 C   0  0  0  0  0  0  0  0  0  0  0  0
    1.9396   -0.0116   -0.0676 O   0  0  0  0  0  0  0  0  0  0  0  0
   -1.6674   -1.8232   -0.3603 H   0  0  0  0  0  0  0  0  0  0  0  0
   -2.6297   -0.3465   -0.4494 H   0  0  0  0  0  0  0  0  0  0  0  0
   -1.8994   -0.8328    1.0815 H   0  0  0  0  0  0  0  0  0  0  0  0
   -0.3672   -0.0020   -1.4268 H   0  0  0  0  0  0  0  0  0  0  0  0
   -1.4364    1.9548   -0.4056 H   0  0  0  0  0  0  0  0  0  0  0  0
    0.2930    1.9868   -0.0365 H   0  0  0  0  0  0  0  0  0  0  0  0
   -0.8614    1.4792    1.1956 H   0  0  0  0  0  0  0  0  0  0  0  0
    0.6845   -0.5684    1.3837 H   0  0  0  0  0  0  0  0  0  0  0  0
    0.7713   -1.7124    0.0252 H   0  0  0  0  0  0  0  0  0  0  0  0
    2.0114   -0.0171   -1.0287 H   0  0  0  0  0  0  0  0  0  0  0  0
  1  2  1  0  0  0  0
  2  3  1  0  0  0  0
  2  4  1  0  0  0  0
  4  5  1  0  0  0  0
  1  6  1  0  0  0  0
  1  7  1  0  0  0  0
  1  8  1  0  0  0  0
  2  9  1  0  0  0  0
  3 10  1  0  0  0  0
  3 11  1  0  0  0  0
  3 12  1  0  0  0  0
  4 13  1  0  0  0  0
  4 14  1  0  0  0  0
  5 15  1  0  0  0  0
M  END
