25
CONF1
C -2.5832567179 1.4085864167 -0.0007222821
C -1.9717202293 0.0027440687 0.0000086218
C -2.4678261501 -0.7367025001 1.2571501009
C -2.4679171946 -0.7380154542 -1.2563265000
C -0.4414282148 0.0350427811 -0.0000296447
C 0.2826208923 -1.1656169321 0.0000521768
C 1.6683129115 -1.1925228045 0.0000503493
C 2.3809926416 0.0052755488 -0.0000070490
C 1.6913916884 1.2125633583 -0.0000580884
C 0.2974251309 1.2183071147 -0.0000760018
O 3.7487704565 -0.0731194929 -0.0000104145
H -3.6748866479 1.3302945230 -0.0007458015
H -2.2914577659 1.9777762014 0.8879547003
H -2.2913215142 1.9768657251 -0.8899380129
H -2.1199451371 -0.2320560725 2.1640555947
H -3.5630609958 -0.7644670068 1.2742028073
H -2.1054137620 -1.7681497819 1.2861380546
H -3.5631596498 -0.7653587891 -1.2735003049
H -2.1197045553 -0.2345990413 -2.1637883908
H -2.1059488623 -1.7696496386 -1.2840231594
H -0.2458696458 -2.1138670835 0.0001054724
H 2.2120762306 -2.1310441802 0.0000829570
H 2.2363530046 2.1538754828 -0.0000907997
H -0.2055557545 2.1780312691 -0.0001361955
H 4.1125988127 0.8192272007 -0.0001239725
