 xtb: 6.7.1 (edcfbbe)
          04152520113D

 13 12  0     0  0            999 V2000
    1.3292    1.2334    0.2113 C   0  0  0  0  0  0  0  0  0  0  0  0
    0.4944    0.1169   -0.4188 C   0  0  0  0  0  0  0  0  0  0  0  0
    0.9115   -1.2614    0.0821 C   0  0  0  0  0  0  0  0  0  0  0  0
   -0.9698    0.3726   -0.1692 C   0  0  0  0  0  0  0  0  0  0  0  0
   -1.7660   -0.4270    0.2319 O   0  0  0  0  0  0  0  0  0  0  0  0
    2.3811    1.0900   -0.0226 H   0  0  0  0  0  0  0  0  0  0  0  0
    1.2137    1.2253    1.2928 H   0  0  0  0  0  0  0  0  0  0  0  0
    1.0218    2.2073   -0.1633 H   0  0  0  0  0  0  0  0  0  0  0  0
    0.6221    0.1639   -1.5088 H   0  0  0  0  0  0  0  0  0  0  0  0
    0.8065   -1.3132    1.1631 H   0  0  0  0  0  0  0  0  0  0  0  0
    1.9461   -1.4671   -0.1801 H   0  0  0  0  0  0  0  0  0  0  0  0
    0.2768   -2.0271   -0.3563 H   0  0  0  0  0  0  0  0  0  0  0  0
   -1.2750    1.4141   -0.4033 H   0  0  0  0  0  0  0  0  0  0  0  0
  1  2  1  0  0  0  0
  2  3  1  0  0  0  0
  2  4  1  0  0  0  0
  4  5  2  0  0  0  0
  1  6  1  0  0  0  0
  1  7  1  0  0  0  0
  1  8  1  0  0  0  0
  2  9  1  0  0  0  0
  3 10  1  0  0  0  0
  3 11  1  0  0  0  0
  3 12  1  0  0  0  0
  4 13  1  0  0  0  0
M  END
