17
CONF1
C -1.8437011337 1.4396994078 -0.0000458697
C -0.5290506242 0.7143124987 0.0000241866
C 0.6782950759 1.4055704286 0.0000397427
C 1.8793760878 0.7059542344 0.0000115193
C 1.8263435684 -0.6808298633 -0.0000745629
N 0.6814687447 -1.3709391474 -0.0000147333
C -0.4735635657 -0.6939362049 0.0000560643
C -1.7331812394 -1.5125758085 0.0001358933
H -1.6935385630 2.5221094527 0.0000153577
H -2.4441316889 1.1813252953 -0.8797950272
H -2.4443039224 1.1812396972 0.8795574858
H 0.6755703990 2.4925934999 0.0000691640
H 2.8322697059 1.2246470871 0.0000422548
H 2.7416548964 -1.2708371027 -0.0000926075
H -2.3495268120 -1.2942575664 -0.8798554972
H -1.4795305100 -2.5729230986 0.0001628911
H -2.3494085116 -1.2941892476 0.8801920970
17
CONF3
C -1.8379167763 1.4739469341 0.0003402458
C -0.5368345940 0.7184436603 -0.0000707582
C 0.6770357633 1.4041028602 -0.0000256925
C 1.8761678545 0.7050618965 -0.0001011954
C 1.8192688752 -0.6828959041 -0.0001858131
N 0.6735245389 -1.3655352480 -0.0004451986
C -0.4835473384 -0.6883649620 -0.0004805221
C -1.7199823401 -1.5452032454 -0.0002125121
H -2.4440523536 1.2336661343 0.8805080607
H -1.6564109463 2.5516466090 0.0041378965
H -2.4411022133 1.2395012555 -0.8834791055
H 0.6771651917 2.4910870452 0.0001057324
H 2.8296912963 1.2225068309 -0.0000604533
H 2.7328226092 -1.2759643361 0.0000381050
H -1.7102949493 -2.2062086527 -0.8724960678
H -1.7216098145 -2.1898450218 0.8844741018
H -2.6426797166 -0.9645172404 -0.0111198668
17
CONF2
C -1.8312865855 1.4759687527 -0.0003500182
C -0.5357325936 0.7094294738 0.0007122275
C 0.6740612958 1.4014842146 0.0008333436
C 1.8754904760 0.7076670876 0.0001546571
C 1.8237753738 -0.6804423934 -0.0001242215
N 0.6813279050 -1.3693900807 -0.0002251139
C -0.4796578398 -0.6965715516 -0.0000024764
C -1.7255904496 -1.5414482384 -0.0002684359
H -1.9071495823 2.1055959431 -0.8936885397
H -2.7035420732 0.8227910261 0.0213596636
H -1.8881001108 2.1399941017 0.8689282729
H 0.6678416959 2.4889211033 0.0015041956
H 2.8273462701 1.2280569768 0.0001663088
H 2.7396626130 -1.2695333972 -0.0006750598
H -2.3455774244 -1.3424156923 -0.8813427463
H -1.4411304107 -2.5938141413 -0.0030987630
H -2.3429129101 -1.3468864923 0.8837151290
