24
 xtb: 6.7.1 (edcfbbe)
C           -2.13999696981383       -0.91803720641301       -0.27222678714792
C           -1.18638556527636       -0.32827441497418        0.76350448414779
H           -1.73748919228594       -0.34431075837408        1.71181195138582
C           -0.75197524401042        1.13093724373335        0.56005372044279
H           -1.61047456496687        1.69753943185318        0.17832281517837
C            0.40786390273087        1.29910158315310       -0.44052626375572
H            0.82751042390617        2.29803366213942       -0.27163446783102
C            1.53864057722557        0.30089659129535       -0.12735369160977
H            2.22164615563919        0.26563588621571       -0.98587529708594
C            1.05867719031801       -1.12556705614562        0.18223567707968
H            1.85019197349645       -1.65253397168052        0.73675429771209
O           -0.04988451126077       -1.19324746271098        1.03506549530606
O            0.85016949436559       -1.81567153288749       -1.06283698232551
O            2.19465940496433        0.82045270001951        1.04265856446555
O            0.01053183013637        1.24622992449376       -1.79335728726662
O           -0.41828121826675        1.70974433386999        1.82020394046384
O           -1.69342684882434       -0.90098138895168       -1.62842281235233
H           -3.06529332916833       -0.33143357833286       -0.24704342502746
H           -2.38378496949325       -1.94536429889810        0.03626014433910
H            0.78781583374438       -2.75676317310335       -0.85386770605225
H            2.93475598821245        0.24675291904816        1.27131282247245
H           -0.68056658519214        0.56267214000087       -1.89267002270765
H            0.47210394681529        1.40514015589201        2.04835736192256
H           -0.86729308009142       -1.41964327727515       -1.65657144675940
