 xtb: 6.7.1 (edcfbbe)
          04152521333D

 24 24  0     0  0            999 V2000
   -3.5803    0.0457   -0.3884 C   0  0  0  0  0  0  0  0  0  0  0  0
   -2.2148    0.0817   -0.7815 O   0  0  0  0  0  0  0  0  0  0  0  0
   -1.3118    0.0035    0.2051 C   0  0  0  0  0  0  0  0  0  0  0  0
   -1.6085   -0.0926    1.3669 O   0  0  0  0  0  0  0  0  0  0  0  0
    0.1002    0.0529   -0.3348 C   0  0  0  0  0  0  0  0  0  0  0  0
    0.8379   -1.2304    0.0632 C   0  0  0  0  0  0  0  0  0  0  0  0
    2.2894   -1.1811   -0.4016 C   0  0  0  0  0  0  0  0  0  0  0  0
    2.9986    0.0352    0.1847 C   0  0  0  0  0  0  0  0  0  0  0  0
    2.2715    1.3146   -0.2159 C   0  0  0  0  0  0  0  0  0  0  0  0
    0.8200    1.2737    0.2497 C   0  0  0  0  0  0  0  0  0  0  0  0
   -4.1635    0.1126   -1.3030 H   0  0  0  0  0  0  0  0  0  0  0  0
   -3.8051    0.8842    0.2737 H   0  0  0  0  0  0  0  0  0  0  0  0
   -3.7972   -0.8851    0.1394 H   0  0  0  0  0  0  0  0  0  0  0  0
    0.0507    0.1340   -1.4241 H   0  0  0  0  0  0  0  0  0  0  0  0
    0.7981   -1.3310    1.1496 H   0  0  0  0  0  0  0  0  0  0  0  0
    0.3341   -2.0949   -0.3749 H   0  0  0  0  0  0  0  0  0  0  0  0
    2.8017   -2.0956   -0.0965 H   0  0  0  0  0  0  0  0  0  0  0  0
    2.3196   -1.1281   -1.4925 H   0  0  0  0  0  0  0  0  0  0  0  0
    3.0150   -0.0457    1.2736 H   0  0  0  0  0  0  0  0  0  0  0  0
    4.0323    0.0687   -0.1656 H   0  0  0  0  0  0  0  0  0  0  0  0
    2.7709    2.1811    0.2217 H   0  0  0  0  0  0  0  0  0  0  0  0
    2.3012    1.4240   -1.3026 H   0  0  0  0  0  0  0  0  0  0  0  0
    0.7801    1.2116    1.3390 H   0  0  0  0  0  0  0  0  0  0  0  0
    0.3032    2.1862   -0.0560 H   0  0  0  0  0  0  0  0  0  0  0  0
  1  2  1  0  0  0  0
  2  3  1  0  0  0  0
  3  4  2  0  0  0  0
  3  5  1  0  0  0  0
  5  6  1  0  0  0  0
  6  7  1  0  0  0  0
  7  8  1  0  0  0  0
  8  9  1  0  0  0  0
  5 10  1  0  0  0  0
  9 10  1  0  0  0  0
  1 11  1  0  0  0  0
  1 12  1  0  0  0  0
  1 13  1  0  0  0  0
  5 14  1  0  0  0  0
  6 15  1  0  0  0  0
  6 16  1  0  0  0  0
  7 17  1  0  0  0  0
  7 18  1  0  0  0  0
  8 19  1  0  0  0  0
  8 20  1  0  0  0  0
  9 21  1  0  0  0  0
  9 22  1  0  0  0  0
 10 23  1  0  0  0  0
 10 24  1  0  0  0  0
M  END
