19
CONF1
C -2.6734301294 -0.5638848024 -0.7557160192
C -1.8502831836 -0.5935913510 0.5396747646
C -0.3792882527 -0.3985362697 0.2889398032
C 0.5064814211 -1.4734685160 0.2400181355
C 1.8634330199 -1.3001019165 -0.0206823280
C 2.3582561501 -0.0192145485 -0.2366987158
C 1.4984282950 1.0734927564 -0.1950535579
C 0.1426874106 0.8826711513 0.0632167627
O -0.7398009059 1.9327478500 0.1136204892
H -2.3569335826 -1.3639245962 -1.4320301881
H -2.5442045388 0.3902076518 -1.2738527685
H -3.7387442926 -0.6957428475 -0.5424925120
H -1.9967145686 -1.5540863455 1.0454951366
H -2.2134779582 0.1873708088 1.2158985469
H 0.1153732620 -2.4724091873 0.4152231300
H 2.5275961838 -2.1570337194 -0.0484685040
H 3.4133029351 0.1368685488 -0.4366703949
H 1.8816990469 2.0779211218 -0.3615837970
H -0.2561195159 2.7521849705 -0.0378870326
