19
CONF1
C -3.0965983660 -0.4079685472 -0.0006361000
C -1.6339758169 -0.0528026506 0.0004387809
C -1.2040990732 1.2710606343 0.0003632906
C 0.1537940687 1.5816876625 -0.0000197639
C 1.0992072792 0.5627629674 -0.0002570394
C 0.7044063961 -0.7824070960 -0.0000003446
C -0.6594568071 -1.0563902892 0.0003962921
C 1.7416324489 -1.8667916153 0.0000775830
O 2.4505617866 0.8083310504 -0.0004830358
H -3.3639751686 -0.9886538593 -0.8903582071
H -3.3591036377 -1.0140132382 0.8733534815
H -3.7213396214 0.4886598659 0.0137286480
H -1.9328806003 2.0764713374 0.0006338086
H 0.4754533974 2.6209556115 0.0000797075
H -0.9750886155 -2.0977676954 0.0007323373
H 1.2706663918 -2.8524159691 0.0012912266
H 2.3911992385 -1.7909213549 -0.8784497209
H 2.3926783378 -1.7894140080 0.8773647283
H 2.5926795171 1.7612647663 -0.0006057346
