9
 xtb: 6.7.1 (edcfbbe)
C           -1.41507144073633       -0.57019952279575        0.00108003014428
S            0.00433280816375        0.60051857192622        0.00949990654853
C            1.40272776182816       -0.57841107199693       -0.00159538951587
H           -2.00827241048533       -0.43692548225417       -0.90648463843165
H           -2.04433628876015       -0.39773288737708        0.87710252844612
H           -1.04127794773066       -1.59600012501192        0.03228914879703
H            1.39491722647520       -1.20790769157164        0.89266548274899
H            2.31764518777801        0.01954871535174       -0.00169036122598
H            1.38963946369854       -1.20009783514504       -0.90112229077427
