14
CONF1
C 2.0232728191 0.7604251407 -0.0004196811
C 0.7813252708 -0.0770750659 0.0001690076
O 0.8285529761 -1.3091418387 0.0020887228
C -0.5010859188 0.6523228108 -0.0019550278
C -1.6735617658 0.0188862367 -0.7402459081
C -1.6729857899 0.0231224049 0.7410807686
H 2.0198063429 1.4184685661 0.8763648300
H 2.9186717104 0.1377494656 0.0010882465
H 2.0209632110 1.4159183165 -0.8791118941
H -0.4394117884 1.7345340603 -0.0048801982
H -2.3299649630 0.7066831870 -1.2612010935
H -1.4597421799 -0.9176237588 -1.2446338987
H -2.3288450838 0.7139780820 1.2586659840
H -1.4586943761 -0.9104135886 1.2507569470
