14
CONF1
C 2.0322244153 0.7620246018 -0.0001293020
C 0.7778833913 -0.0787250502 -0.0000682036
O 0.8142331889 -1.2963780569 0.0005397540
C -0.5109762037 0.6639133720 -0.0005114377
C -1.6742413760 0.0231140151 -0.7418478312
C -1.6740653055 0.0242479688 0.7421582151
H 2.0426012522 1.4152348517 -0.8803429986
H 2.0418145021 1.4167800366 0.8789418547
H 2.9156750827 0.1233962730 0.0007954693
H -0.4554348301 1.7478263840 -0.0012967547
H -2.3457015689 0.6944372822 -1.2649883427
H -1.4426790372 -0.9134819697 -1.2371956818
H -2.3453850296 0.6963710001 1.2644535486
H -1.4423862124 -0.9115859215 1.2388897294
