 xtb: 6.7.1 (edcfbbe)
          04152519463D

 17 17  0     0  0            999 V2000
   -2.7575   -0.7846    0.0004 C   0  0  0  0  0  0  0  0  0  0  0  0
   -1.7948    0.2381    0.0000 O   0  0  0  0  0  0  0  0  0  0  0  0
   -0.4637   -0.1233    0.0000 C   0  0  0  0  0  0  0  0  0  0  0  0
    0.0225   -1.4179   -0.0000 C   0  0  0  0  0  0  0  0  0  0  0  0
    1.3924   -1.6427    0.0000 C   0  0  0  0  0  0  0  0  0  0  0  0
    2.2749   -0.5813    0.0000 C   0  0  0  0  0  0  0  0  0  0  0  0
    1.7970    0.7191    0.0000 C   0  0  0  0  0  0  0  0  0  0  0  0
    0.4340    0.9582    0.0000 C   0  0  0  0  0  0  0  0  0  0  0  0
   -0.0328    2.2346    0.0000 O   0  0  0  0  0  0  0  0  0  0  0  0
   -2.6753   -1.4112    0.8941 H   0  0  0  0  0  0  0  0  0  0  0  0
   -2.6758   -1.4115   -0.8931 H   0  0  0  0  0  0  0  0  0  0  0  0
   -3.7233   -0.2812    0.0007 H   0  0  0  0  0  0  0  0  0  0  0  0
   -0.6519   -2.2596   -0.0000 H   0  0  0  0  0  0  0  0  0  0  0  0
    1.7596   -2.6576   -0.0000 H   0  0  0  0  0  0  0  0  0  0  0  0
    3.3392   -0.7591    0.0001 H   0  0  0  0  0  0  0  0  0  0  0  0
    2.4664    1.5642    0.0001 H   0  0  0  0  0  0  0  0  0  0  0  0
   -0.9989    2.1961    0.0000 H   0  0  0  0  0  0  0  0  0  0  0  0
  1  2  1  0  0  0  0
  2  3  1  0  0  0  0
  3  4  4  0  0  0  0
  4  5  4  0  0  0  0
  5  6  4  0  0  0  0
  6  7  4  0  0  0  0
  3  8  4  0  0  0  0
  7  8  4  0  0  0  0
  8  9  1  0  0  0  0
  1 10  1  0  0  0  0
  1 11  1  0  0  0  0
  1 12  1  0  0  0  0
  4 13  1  0  0  0  0
  5 14  1  0  0  0  0
  6 15  1  0  0  0  0
  7 16  1  0  0  0  0
  9 17  1  0  0  0  0
M  END
