11
 xtb: 6.7.1 (edcfbbe)
C           -2.85517839768598       -0.61778644934616        0.02759786452053
O           -1.48696378461706       -0.88103280558306        0.41839615338256
C           -0.53587354507709       -0.04337578460130       -0.05947262345764
O           -0.72285013414968        0.90061301120969       -0.77642038202069
C            0.79796620769960       -0.53269824140537        0.48062243052866
Cl           2.16427659788963        0.50469883254400       -0.02606562843904
H           -3.42979967155486       -0.44118932036229        0.93915240270527
H           -3.22807169824675       -1.50844292758069       -0.48221380171315
H           -2.90117605908171        0.25092519336004       -0.63058690898185
H            0.97740348591435       -1.54957914024500        0.12213078362182
H            0.75861709312919       -0.55561096750985        1.57235727623997
