8
CONF2
C 0.7242633478 -0.5372613389 -0.2453187106
C -0.7244428731 -0.5369845805 0.2454345869
Cl -1.1348116455 0.9040351767 1.2118262532
Cl -1.8210994207 -0.7116860621 -1.1735660696
Cl 1.1351015156 0.9034597625 -1.2119582866
Cl 1.8208641286 -0.7120760663 1.1737134140
H 0.8819960239 -1.4140357444 -0.8773977279
H -0.8824582486 -1.4135995510 0.8776642019
