15
 xtb: 6.7.1 (edcfbbe)
C           -1.58770422807828        0.94152668778824        0.17518633708782
C           -1.33299434462391       -0.49141707584462       -0.28371348431950
C            0.07061805536046       -1.02960392918397       -0.31904978970615
C            1.26324713673982       -0.50242012116594       -0.02521102443531
C            1.65477875973210        0.85970321815475        0.46175283517272
H           -2.66122598772939        1.15234111390968        0.14585140885307
H           -1.09163852368329        1.66834749410487       -0.47403622118419
H           -1.24772522625277        1.10334484801720        1.20195315488248
H           -1.92277309782421       -1.17408612440768        0.34566223149454
H           -1.75303463521797       -0.62023920545206       -1.29226510888738
H            0.09563488761053       -2.06660851275316       -0.65714528792276
H            2.11356889973049       -1.17233369115843       -0.15776867434634
H            2.36993611467385        1.31481409249227       -0.23409275312390
H            2.17237706863872        0.77969453771595        1.42545510142903
H            0.82036250795328        1.54540414189205        0.58334874329987
