27
CONF3
C -3.4155770574 0.5768255741 -0.0187002160
C -1.9421404294 0.5590338867 0.3543459102
H -1.7994481300 1.0033396841 1.3514155468
C -1.0768292553 1.3775192532 -0.6302432545
C 0.4057040470 1.3416155558 -0.2722246489
C 0.9314586442 -0.1043172052 -0.2249605132
H 0.7669427501 -0.5436304188 -1.2208712346
C 0.0959891330 -0.9128437409 0.7881581074
C -1.3662534350 -0.8351236946 0.4428250623
O -2.0332933716 -1.8425938403 0.2210534027
C 2.4210978512 -0.1490289985 0.0387504994
C 2.9529753051 -0.4911964894 1.2162429079
C 3.2823845733 0.2271483873 -1.1333695834
H -3.7823594230 1.6072392158 -0.0448976290
H -3.5726947985 0.1341374375 -1.0077755179
H -4.0186520358 0.0173098065 0.7021320067
H -1.2234270514 0.9756731028 -1.6420325409
H -1.4423048276 2.4100620873 -0.6365988608
H 0.9715536473 1.9260380367 -1.0045007786
H 0.5644102991 1.8043433719 0.7112657621
H 0.4097532329 -1.9596127099 0.8193984360
H 0.2228793119 -0.4739348330 1.7869726487
H 4.0302942266 -0.4855785946 1.3593459455
H 2.3474654477 -0.7869077448 2.0673287496
H 3.0244082699 1.2208522572 -1.5176557572
H 4.3425716096 0.2239723995 -0.8679482347
H 3.1268325859 -0.4775436379 -1.9600792511
