8
CONF1
C 0.6538492467 0.0000104903 -0.3856602099
C -0.6538743297 0.0000762525 0.3855696736
Cl -1.5882254144 1.4497186082 -0.0332867412
Cl -1.5888929880 -1.4492001151 -0.0332565185
Cl 1.5888212462 1.4489770201 0.0333092498
Cl 1.5883050229 -1.4495272307 0.0332676441
H 0.4876061280 -0.0000848724 -1.4654677950
H -0.4875839302 0.0001668378 1.4653636149
8
CONF2
C 0.7202492429 -0.5621105198 -0.2411984932
C -0.7204140748 -0.5618606385 0.2413682611
Cl -1.0759670164 0.8982955625 1.1793737292
Cl -1.8023766890 -0.6668261507 -1.1641011155
Cl 1.0762417779 0.8977532965 -1.1795404208
Cl 1.8021717122 -0.6672380319 1.1642019481
H 0.9150540252 -1.4282935198 -0.8787080911
H -0.9155444358 -1.4278679539 0.8790015923
