 xtb: 6.7.1 (edcfbbe)
          04152520183D

  8  7  0     0  0            999 V2000
    1.2577    0.3103    1.1440 C   0  0  0  0  0  0  0  0  0  0  0  0
    0.0318   -0.5731    1.1034 C   0  0  0  0  0  0  0  0  0  0  0  0
   -1.2254    0.0064   -0.2695 Br  0  0  0  0  0  0  0  0  0  0  0  0
    2.2497    0.0948   -0.3287 Cl  0  0  0  0  0  0  0  0  0  0  0  0
    0.9891    1.3655    1.2005 H   0  0  0  0  0  0  0  0  0  0  0  0
    1.8837    0.0398    1.9957 H   0  0  0  0  0  0  0  0  0  0  0  0
   -0.5039   -0.5241    2.0517 H   0  0  0  0  0  0  0  0  0  0  0  0
    0.2905   -1.6054    0.8722 H   0  0  0  0  0  0  0  0  0  0  0  0
  1  2  1  0  0  0  0
  2  3  1  0  0  0  0
  1  4  1  0  0  0  0
  1  5  1  0  0  0  0
  1  6  1  0  0  0  0
  2  7  1  0  0  0  0
  2  8  1  0  0  0  0
M  END
