8
 xtb: 6.7.1 (edcfbbe)
C            1.25536090803094        0.30721143884168        1.13686370526201
C            0.03446833312082       -0.57153554783610        1.10047709056160
Br          -1.26100015855004       -0.00932322559779       -0.27281763251532
Cl           2.29204173032080        0.11444059902428       -0.33634635445398
H            0.99238531430500        1.36386409436220        1.21198625309183
H            1.87364379435112        0.02260935112226        1.99472278196830
H           -0.49559760619522       -0.50336726462025        2.05282606882328
H            0.28183445062223       -1.60968952057823        0.88167460651996
