24
 xtb: 6.7.1 (edcfbbe)
C           -2.54076330053513       -0.92726487982793        0.29249812139987
C           -1.14226034841511       -0.42977132148660        0.62603358779186
H           -1.03399895626429       -0.35101463008274        1.72215420433961
C           -0.84475993980107        0.93964668537864        0.00560245699728
H           -1.07283198040542        0.87848614703864       -1.07362208091115
C            0.62518893648808        1.28905599422144        0.19590433799409
H            0.82209658161947        1.44368685153087        1.26513251630641
C            1.50941548927757        0.16409670186864       -0.31669991868689
H            1.34437395603395        0.01689883134465       -1.39962013829596
C            1.10994418072006       -1.13444615950731        0.38315947651164
H            1.24606519222502       -1.01839786988380        1.47862899656701
O           -0.24399231734919       -1.41499508567724        0.10105068821622
O            1.82705798709823       -2.23576180389932       -0.09631939337352
O            2.88694932465439        0.39175267877677       -0.03811726943680
O            0.95917794478066        2.54478516563827       -0.42049498047437
O           -1.68808382791607        1.88766434585866        0.64863334899585
O           -2.72077708372553       -1.09948341707698       -1.10781107998530
H           -3.27338342777222       -0.18599050038113        0.62188874342970
H           -2.71763404417402       -1.86746981098607        0.83583203797625
H            2.74736602829512       -1.95497510044565       -0.18475739577174
H            3.08058235685648        1.30965149756598       -0.26753116139129
H            0.76062892924922        2.46867365137320       -1.36406472046315
H           -1.36409312722060        2.76568929369528        0.41152283193950
H           -2.04923620734538       -1.73033149656902       -1.39648926949126
