15
 xtb: 6.7.1 (edcfbbe)
C           -1.59013316926454        0.91830128568924        0.22259075180669
C           -1.33669182783716       -0.53551481875647       -0.16596485983911
C            0.07252778463332       -1.05208366811228       -0.25665310728776
C            1.27005735704389       -0.48842486863434       -0.06964878219245
C            1.66372158270084        0.90732592791391        0.30842481242446
H           -1.15071469676586        1.61233927473603       -0.49931218833801
H           -1.18795904552896        1.14654442169317        1.21370150260059
H           -2.66725769030498        1.11001100381314        0.25072088310377
H           -1.87254627029595       -1.18840269372914        0.53891891189278
H           -1.81592507675022       -0.73174634500185       -1.13665521139035
H            0.09783729139336       -2.10718993114038       -0.53327098412147
H            2.12393837432510       -1.15149622679364       -0.21370589555729
H            2.33312932670874        1.32648208133491       -0.45289319012408
H            2.23338729543431        0.89596780878768        1.24612576205169
H            0.82531560399397        1.58819244675465        0.43162097347822
