15
CONF2
C -1.7389901534 -0.8225898121 0.0044561079
C -0.5047856678 0.0039354786 -0.3602791556
C -0.6674218953 1.4561248445 0.0894810393
C 0.7377399156 -0.6376149562 0.2607827080
O 1.9608707749 0.0051526171 -0.0977580396
H -1.8938919888 -0.8302916351 1.0900413376
H -1.6391825412 -1.8611642215 -0.3282185956
H -2.6402892013 -0.4071007494 -0.4561900473
H -0.3722446148 -0.0129625658 -1.4505904945
H -1.5669484195 1.9025138319 -0.3457903838
H 0.1805734568 2.0763108493 -0.2198558974
H -0.7616426016 1.5154931153 1.1814015747
H 0.6197185353 -0.6743408293 1.3579029960
H 0.8354779710 -1.6698598623 -0.0931153341
H 1.9828950442 0.8659701393 0.3317482723
15
CONF4
C -1.7480679798 -0.7952591770 -0.0279583363
C -0.4828588355 0.0039377130 -0.3439133388
C -0.6199116421 1.4591403244 0.1034249407
C 0.7195333242 -0.6625236707 0.3111843061
O 1.9035693052 0.0402116966 -0.0797575345
H -1.9304102585 -0.8215020873 1.0529991397
H -1.6748908690 -1.8283761373 -0.3837467959
H -2.6228133624 -0.3377803851 -0.4994631086
H -0.3120895463 -0.0159965630 -1.4291650722
H -0.8061793410 1.5107092916 1.1833054819
H -1.4586976116 1.9449638861 -0.4053171347
H 0.2901470460 2.0237024576 -0.1118263762
H 0.5939723911 -0.6387350306 1.4075516865
H 0.7727435104 -1.7174812239 -0.0031049826
H 2.6542677142 -0.3644100916 0.3655051798
15
CONF1
C -1.7515563203 -0.8033352984 0.0084676211
C -0.5036598080 0.0106067960 -0.3387059071
C -0.6391224874 1.4615053651 0.1204994534
C 0.7300421668 -0.6506394134 0.2781441194
O 1.9541942294 0.0166476248 -0.0353773053
H -1.6769605763 -1.8341408385 -0.3539198549
H -2.6466479123 -0.3544713632 -0.4324914021
H -1.8983005055 -0.8373011288 1.0945150059
H -0.3765717987 -0.0020902354 -1.4330112994
H -1.4826357513 1.9536928127 -0.3741140837
H 0.2701045247 2.0287739402 -0.0946239050
H -0.8126689422 1.5026436855 1.2026512764
H 0.6524742281 -0.6207742442 1.3720780878
H 0.7753256407 -1.7104400256 -0.0215319876
H 2.0886351161 -0.0490028843 -0.9871948709
15
CONF6
C -1.2532854867 -0.9767591003 0.0250282634
C -0.4538140160 0.2826868292 -0.3048223417
C -1.1413624253 1.5374508271 0.2353911836
C 0.9680978374 0.1939046705 0.2515558562
O 1.7095443409 -0.9211793962 -0.2486658960
H -2.2468636631 -0.9441660629 -0.4330507867
H -1.3856671034 -1.0688038528 1.1096508366
H -0.7374013632 -1.8739374061 -0.3264992876
H -0.3775476677 0.3749049653 -1.4000861242
H -2.1550087863 1.6312573611 -0.1648513177
H -0.5891281606 2.4459653288 -0.0264556941
H -1.2191185765 1.4927846155 1.3277586025
H 1.5048772525 1.1371177474 0.0590104396
H 0.9274953862 0.0537415631 1.3387781186
H 1.8126709643 -0.8012128006 -1.1986258915
15
CONF3
C -1.3818822670 -0.8485423771 0.3965919976
C -0.5814652862 0.0953927997 -0.5042295421
C -0.6794099283 1.5403481003 -0.0140032829
C 0.8779794236 -0.3538528783 -0.6247864084
O 1.5878702293 -0.3297138721 0.6173538594
H -2.4431695667 -0.5823796826 0.3973979796
H -1.0367540959 -0.7849933061 1.4355881648
H -1.2977145387 -1.8903882999 0.0666731697
H -1.0004428712 0.0374373124 -1.5199311844
H -0.2275175754 1.6367540269 0.9778701908
H -1.7233421382 1.8628287535 0.0517259957
H -0.1548418237 2.2242896926 -0.6890734706
H 0.9227319099 -1.3582598060 -1.0760398801
H 1.4235798191 0.3310572665 -1.2832219078
H 1.2313866072 -1.0286729501 1.1752276418
15
CONF5
C -1.3577862258 -0.8604718566 0.4199560380
C -0.5786368668 0.0865470652 -0.4956984546
C -0.6492991115 1.5293031426 0.0100067383
C 0.8662775536 -0.3707555467 -0.6634481344
O 1.5089069291 -0.3428514703 0.6174312373
H -2.4074631150 -0.5575827996 0.4868819805
H -0.9340841128 -0.8507490263 1.4282146040
H -1.3246506122 -1.8904851775 0.0488793466
H -1.0242250297 0.0464672363 -1.5003875895
H -1.6886589441 1.8666542689 0.0731328041
H -0.1107585980 2.2117094646 -0.6563357555
H -0.2034790009 1.6067571392 1.0056750179
H 0.8828091185 -1.3904624157 -1.0812801996
H 1.3840846543 0.2986889262 -1.3694397612
H 2.4190190897 -0.6315198287 0.5019846389
