24
CONF3
C -3.6057245043 0.0445365310 -0.3815939221
O -2.2288496358 0.0858110341 -0.8136551570
C -1.3189097679 0.0043068284 0.1884797675
O -1.6239248247 -0.0938026856 1.3558272532
C 0.0974831679 0.0535272235 -0.3316859864
C 0.8379330923 -1.2371120514 0.0608501319
C 2.2975530166 -1.1908116665 -0.3930209267
C 3.0153313877 0.0354764395 0.1741247263
C 2.2802940863 1.3225592182 -0.2054575144
C 0.8201623342 1.2824895452 0.2481524494
H -4.2000628523 0.1108167986 -1.2927188512
H -3.8214471265 0.8845680829 0.2833732773
H -3.8102961601 -0.8894603651 0.1473428837
H 0.0665145671 0.1350245429 -1.4246809745
H 0.7861899258 -1.3445499620 1.1516169013
H 0.3280293109 -2.1051254641 -0.3736169904
H 2.8094218984 -2.1098507259 -0.0855544635
H 2.3373597221 -1.1584478093 -1.4909492031
H 3.0586010847 -0.0461752578 1.2690826289
H 4.0507439563 0.0694659285 -0.1835238895
H 2.7804481175 2.1925808199 0.2351226413
H 2.3196251834 1.4540447571 -1.2960363451
H 0.7677955281 1.2270226322 1.3427624329
H 0.2992199689 2.1984054450 -0.0550431281
24
CONF1
C -3.6021074054 0.1279581097 -0.3575444155
O -2.2255869731 0.1736831249 -0.7915751527
C -1.3167310730 -0.0873891084 0.1809185657
O -1.6226697624 -0.3448416958 1.3230763735
C 0.0991699697 0.0060521698 -0.3346189751
C 0.8694135237 -1.2818786431 -0.0019299566
C 2.3282846869 -1.1781183878 -0.4489486869
C 3.0148749886 0.0361970397 0.1789376397
C 2.2506366214 1.3216744389 -0.1431200203
C 0.7913967294 1.2252734084 0.3043494098
H -4.1954787266 0.3377103195 -1.2472936511
H -3.7824854172 0.8803951552 0.4146733419
H -3.8414584119 -0.8596550428 0.0447484729
H 0.0674520023 0.1436015110 -1.4219174751
H 0.8178051535 -1.4433821978 1.0816945716
H 0.3820448988 -2.1401343605 -0.4791489947
H 2.8621744410 -2.0979911294 -0.1849294100
H 2.3693252474 -1.0913312130 -1.5438021271
H 3.0557655665 -0.0960600396 1.2688709670
H 4.0504092544 0.1116132105 -0.1718498691
H 2.7287446642 2.1820979199 0.3386964567
H 2.2875722256 1.5035768766 -1.2262561765
H 0.7403501565 1.1169039449 1.3951677926
H 0.2482511136 2.1408859606 0.0424842745
24
CONF2
C -3.5703503020 -0.2660315747 -0.4044966157
O -2.1963051514 -0.0950239015 -0.8132620524
C -1.3213113350 0.0960431812 0.2062287527
O -1.6562303638 0.1413740043 1.3678899435
C 0.0989194952 0.1895531226 -0.2975508628
C 0.7538965698 -1.2032363557 -0.1828391525
C 2.2125895171 -1.1578663299 -0.6404697352
C 3.0078521503 -0.1153384440 0.1475956205
C 2.3565428567 1.2647253912 0.0401311810
C 0.8983811967 1.2264182987 0.5002464097
H -3.9263607241 0.6274333831 0.1149131561
H -3.6653604703 -1.1271121831 0.2620284900
H -4.1308873406 -0.4259241926 -1.3253614368
H 0.0728065229 0.4725505193 -1.3570285508
H 0.7039596361 -1.5225892853 0.8664309088
H 0.1865573878 -1.9304651968 -0.7747212679
H 2.6657085976 -2.1496165582 -0.5295429900
H 2.2491548597 -0.9100827431 -1.7104325419
H 3.0469948572 -0.4145376754 1.2040166390
H 4.0427442351 -0.0771054419 -0.2109726864
H 2.9137901286 1.9968313250 0.6353046461
H 2.4014319257 1.6054458755 -1.0037733056
H 0.8442691248 0.9626615829 1.5631054920
H 0.4351941281 2.2141582852 0.3945503567
24
CONF4
C -3.5914629392 -0.1559296412 -0.4043095201
O -2.2179038368 0.0124342470 -0.8155154136
C -1.3183177947 0.0044273372 0.1993562944
O -1.6304026269 -0.1233014320 1.3616148477
C 0.0974480191 0.1387346912 -0.3078645291
C 0.7895013577 -1.2367820396 -0.2233174148
C 2.2484537079 -1.1422618884 -0.6725837144
C 3.0129422715 -0.0994161846 0.1452154343
C 2.3268589460 1.2657580309 0.0674327840
C 0.8679656584 1.1789434691 0.5180992619
H -4.1768706917 -0.1273257132 -1.3225923804
H -3.8885923210 0.6514929279 0.2691494081
H -3.7214518006 -1.1119947572 0.1083441045
H 0.0640295322 0.4515633668 -1.3584021108
H 0.7419203111 -1.5824105329 0.8174147978
H 0.2448239062 -1.9654919388 -0.8349757867
H 2.7268874368 -2.1244125311 -0.5836377898
H 2.2848556923 -0.8676499223 -1.7361759920
H 3.0536494592 -0.4232974979 1.1944374352
H 4.0487120459 -0.0261094778 -0.2055647299
H 2.8615602786 1.9975333509 0.6835669121
H 2.3681526643 1.6332202444 -0.9675731424
H 0.8153030531 0.8884998109 1.5743221492
H 0.3802417762 2.1569602307 0.4311175013
24
CONF8
C -3.0518306240 0.8206248649 0.5123435992
O -1.8542670105 0.7553249379 -0.2878370152
C -1.0981815662 -0.3529014056 -0.0895830664
O -1.4022384363 -1.2209398966 0.6961096595
C 0.1162770544 -0.3724801434 -1.0051633959
C 1.1211017907 -1.4375436068 -0.5478161756
C 1.8312793438 -1.0289645426 0.7461653540
C 2.4930975600 0.3446934838 0.6138930842
C 1.4793766310 1.4043673371 0.1752826928
C 0.7957421909 1.0019689621 -1.1327392384
H -3.7137576048 -0.0176928233 0.2785644887
H -3.5239675923 1.7685518371 0.2540445512
H -2.8019765203 0.7899045514 1.5762990918
H -0.2853366084 -0.6537252521 -1.9903605788
H 0.6114634849 -2.3959645104 -0.4143875372
H 1.8637999366 -1.5660001737 -1.3463141738
H 1.0994638504 -1.0066372345 1.5630441286
H 2.5771395515 -1.7867650084 1.0116509587
H 2.9586765746 0.6339001712 1.5630816308
H 3.2990808320 0.2904597582 -0.1320037494
H 0.7185888286 1.5306768652 0.9595421104
H 1.9692502875 2.3774801275 0.0555679892
H 0.0709586463 1.7583661501 -1.4437533054
H 1.5521441682 0.9300161386 -1.9255369963
24
CONF9
C -3.0849796495 -0.9058822130 0.2333954325
O -1.8919631215 -0.5968541572 -0.5154005203
C -1.0960779665 0.3466823970 0.0465557638
O -1.3598846656 0.8850775071 1.0968144693
C 0.1067357242 0.6505249916 -0.8328809674
C 0.7878741325 -0.6227272881 -1.3673798518
C 1.4934319097 -1.3854216985 -0.2448056184
C 2.5157833042 -0.4931695744 0.4639389815
C 1.8531492551 0.7742142719 1.0087414967
C 1.1145146966 1.5396109129 -0.0929929956
H -2.8246798277 -1.3098501586 1.2148186667
H -3.6173123312 -1.6489247441 -0.3594925471
H -3.6943921689 -0.0091236210 0.3686398562
H -0.3066451293 1.2045365844 -1.6887354264
H 0.0590941743 -1.2588359745 -1.8760832794
H 1.5317354945 -0.3161717437 -2.1146393003
H 0.7478261147 -1.7365681546 0.4835366299
H 1.9802468261 -2.2795762381 -0.6506978194
H 3.0044245850 -1.0440679581 1.2757891661
H 3.3031304558 -0.2157043563 -0.2517864241
H 1.1393677120 0.5046464537 1.7962037244
H 2.6028435261 1.4272505089 1.4698341558
H 0.6026998704 2.4100678591 0.3275390679
H 1.8408773602 1.9076095761 -0.8295954846
24
CONF7
C -3.0951914297 -0.9164211329 0.2305085784
O -1.8996985578 -0.6165232829 -0.5175793970
C -1.0958677252 0.3200032952 0.0450022599
O -1.3542299767 0.8589138504 1.0966884598
C 0.1043492625 0.6177272049 -0.8392648191
C 0.8026300856 -0.6621375836 -1.3356172900
C 1.5194563781 -1.3811846627 -0.1916530285
C 2.5311106168 -0.4543690293 0.4875086131
C 1.8524697787 0.8195697128 0.9963495244
C 1.0987027938 1.5412803037 -0.1246469989
H -2.8393548702 -1.3191294280 1.2142148666
H -3.6317522269 -1.6579578867 -0.3613642458
H -3.6996517521 -0.0150304984 0.3619793969
H -0.3143356486 1.1400826011 -1.7120771325
H 0.0816280360 -1.3225538151 -1.8241978730
H 1.5415331708 -0.3681072770 -2.0926459285
H 0.7798042682 -1.7190956219 0.5488239199
H 2.0171572497 -2.2808852808 -0.5711980378
H 3.0290567471 -0.9739313628 1.3141255242
H 3.3131147305 -0.1879539312 -0.2380745467
H 1.1461580129 0.5641189571 1.7949284666
H 2.5949694556 1.4967004543 1.4337974626
H 0.5734577325 2.4143660203 0.2735793662
H 1.8176083900 1.9013544176 -0.8723858110
24
CONF17
C -2.9080331543 0.5475969923 1.1757075659
O -1.7702574491 0.7672272628 0.3184818249
C -1.0591835266 -0.3485812990 0.0184209446
O -1.3523080249 -1.4443672616 0.4381115888
C 0.0843090892 -0.0390650164 -0.9351667172
C 1.0572632418 -1.2216287105 -1.0203813438
C 1.8817768733 -1.3723184205 0.2618598026
C 2.6059121460 -0.0727990605 0.6221172449
C 1.6227827426 1.0962581843 0.7232888117
C 0.8308125463 1.2575334786 -0.5754269498
H -2.5900783092 0.1217808768 2.1310002706
H -3.6181410555 -0.1347367841 0.7011564514
H -3.3566959945 1.5301983801 1.3224603887
H -0.4015661548 0.1012176911 -1.9125050989
H 0.5058780199 -2.1434550930 -1.2262619592
H 1.7309024200 -1.0421773619 -1.8685695061
H 1.2142547973 -1.6596275464 1.0834687363
H 2.6032421010 -2.1884333143 0.1415061707
H 3.1517855554 -0.1931433381 1.5649404218
H 3.3541350208 0.1557370819 -0.1505003188
H 0.9262733320 0.9181266008 1.5555582538
H 2.1547403492 2.0263896532 0.9535397514
H 0.1314604130 2.0944819229 -0.5080524183
H 1.5278403282 1.4793392593 -1.3944300479
24
CONF14
C -3.1196674896 0.6309280188 0.4962890569
O -1.9084675660 0.7104598614 -0.2824406389
C -1.0967860229 -0.3716336996 -0.1831141686
O -1.3622612699 -1.3285395030 0.5080084506
C 0.1249109867 -0.2291473675 -1.0767377676
C 1.1359090193 -1.3507762659 -0.8085093332
C 1.8444173108 -1.1757557883 0.5381486190
C 2.4902780788 0.2064078408 0.6580626678
C 1.4643320957 1.3162466751 0.4160454988
C 0.7930357359 1.1520113765 -0.9489249205
H -3.7154773688 -0.2326722723 0.1887691991
H -3.6549870949 1.5596340376 0.2987667747
H -2.8840146864 0.5393869080 1.5599951987
H -0.2653526836 -0.3290569507 -2.1004207150
H 0.6341028821 -2.3218922825 -0.8494459053
H 1.8803369699 -1.3285570585 -1.6151810839
H 1.1158750279 -1.3119629468 1.3463142513
H 2.6005417472 -1.9598433128 0.6593907062
H 2.9521814936 0.3239127362 1.6450403231
H 3.2972466348 0.2995748944 -0.0830100463
H 0.6991086697 1.2845967570 1.2053147989
H 1.9414032888 2.3008139061 0.4803024120
H 0.0624459740 1.9455751316 -1.1252995197
H 1.5554100322 1.2295302675 -1.7353729600
24
CONF12
C -3.4055979952 -0.8151313169 0.0212465591
O -1.9848212860 -0.8289700953 -0.2312989218
C -1.3625686187 0.3573587421 -0.0343370241
O -1.9437408041 1.3528100381 0.3345741169
C 0.1226456426 0.2983039554 -0.3377228732
C 0.6883380093 -1.1058453499 -0.5738324723
C 2.1841630957 -1.0400887642 -0.8953104578
C 2.9634087584 -0.3137851441 0.2021752947
C 2.3953612792 1.0872049780 0.4369791847
C 0.9032315414 1.0339676583 0.7655001775
H -3.7434164610 -1.8350989973 -0.1618929220
H -3.9047754787 -0.1144194679 -0.6530542833
H -3.6057420927 -0.5183366816 1.0538299719
H 0.2382087864 0.8802895654 -1.2667061632
H 0.5322895842 -1.7112417607 0.3286293382
H 0.1462337160 -1.6030881671 -1.3833750195
H 2.5775421149 -2.0531136682 -1.0373035216
H 2.3257827889 -0.5108905830 -1.8484592697
H 2.8961516292 -0.8905514518 1.1353738483
H 4.0262682074 -0.2561213695 -0.0594092919
H 2.9358142986 1.5893574782 1.2474313749
H 2.5447387322 1.6954317745 -0.4664173725
H 0.7557267211 0.4987801847 1.7142083502
H 0.4900602317 2.0378814382 0.8962122240
