17
CONF1
C -3.3011161514 0.2646109815 0.0086567790
C -1.8161069458 0.0850446210 -0.0074013745
C -1.2507466706 -1.1867296594 -0.0042782164
C 0.1195804895 -1.3511823126 -0.0007408055
C 0.9599567030 -0.2385487223 0.0000325216
C 0.3958003109 1.0390526733 -0.0021442380
C -0.9734427060 1.1945996416 -0.0059009699
C 2.4150233074 -0.3998972263 0.0023282018
O 3.2200923344 0.4975875753 0.0035391502
H -3.5965672069 1.0948946679 -0.6291855880
H -3.8086925585 -0.6373492066 -0.3237956603
H -3.6346964033 0.4888919882 1.0223861614
H -1.8954652650 -2.0540022033 -0.0059651755
H 0.5479106546 -2.3435756393 0.0000287471
H 1.0561977163 1.8933690144 -0.0021254423
H -1.4036431712 2.1858047614 -0.0085352403
H 2.7449137988 -1.4594442993 0.0036034214
