17
CONF1
C -3.3128613570 0.2642362825 0.0119587262
C -1.8222051969 0.0841754818 -0.0091719637
C -1.2513290373 -1.1914251265 -0.0072824288
C 0.1282280158 -1.3488834475 -0.0007037027
C 0.9657821540 -0.2314732815 0.0020658690
C 0.4024010169 1.0502591675 -0.0012596256
C -0.9726176250 1.2007879152 -0.0081554516
C 2.4267060027 -0.4126707822 0.0030446587
O 3.2371488504 0.4910893264 0.0048862816
H -3.6200412668 1.0962706285 -0.6282007521
H -3.8301085314 -0.6390265326 -0.3202255136
H -3.6579022184 0.4913188132 1.0278047361
H -1.8969779900 -2.0649509565 -0.0125343374
H 0.5646430105 -2.3448834624 -0.0014490398
H 1.0662481939 1.9088536920 -0.0027528577
H -1.4071566919 2.1967859827 -0.0144122528
H 2.7590409768 -1.4773361930 0.0068889373
