15
 xtb: 6.7.1 (edcfbbe)
C           -1.08287262703163       -1.87798020620941       -0.00002176583920
C            0.25191488589809       -1.49430240235751       -0.00014323785946
C            0.53183020399105       -0.13314518348038       -0.00019980852619
C           -0.45117439552025        0.84344388892457       -0.00017836040138
C           -1.78200216113628        0.43315974295865       -0.00005630572937
C           -2.09868665102230       -0.92745793982157        0.00003767129647
O           -2.72938783448999        1.41193963107449        0.00003365294973
N            1.94875929063825        0.30240558231690        0.00006261587804
O            2.17159760574785        1.50605070932850        0.00017899402918
O            2.80677038363113       -0.57091037125869        0.00023531166309
H           -1.33889876947233       -2.93191942525020        0.00007698355068
H            1.05837067875294       -2.21473127327100       -0.00013390325271
H           -0.19338328828969        1.89440077201768       -0.00019050867554
H           -3.13878137034470       -1.24309040262291        0.00017671675894
H           -3.60634823666027        1.01164359049949        0.00014737769182
