8
CONF1
C -0.4780542528 0.5848790262 -0.0001837424
C 0.4781060933 -0.5849562198 -0.0001262746
Cl 2.1781769165 0.0688851421 -0.0001215663
Cl -2.1781218340 -0.0689658839 -0.0001009079
H -0.3647269184 1.1995982368 -0.8943149630
H -0.3646838392 1.1997174113 0.8938586134
H 0.3647419425 -1.1997043022 0.8939807399
H 0.3647720313 -1.1997664173 -0.8941922268
