 xtb: 6.7.1 (edcfbbe)
          04152521333D

 24 24  0     0  0            999 V2000
   -3.0640   -0.9156    0.2112 C   0  0  0  0  0  0  0  0  0  0  0  0
   -1.9041   -0.5667   -0.5294 O   0  0  0  0  0  0  0  0  0  0  0  0
   -1.0732    0.3102    0.0553 C   0  0  0  0  0  0  0  0  0  0  0  0
   -1.2896    0.7920    1.1356 O   0  0  0  0  0  0  0  0  0  0  0  0
    0.1096    0.6238   -0.8429 C   0  0  0  0  0  0  0  0  0  0  0  0
    0.7948   -0.6597   -1.3269 C   0  0  0  0  0  0  0  0  0  0  0  0
    1.4908   -1.3709   -0.1707 C   0  0  0  0  0  0  0  0  0  0  0  0
    2.5161   -0.4470    0.4787 C   0  0  0  0  0  0  0  0  0  0  0  0
    1.8361    0.8183    0.9908 C   0  0  0  0  0  0  0  0  0  0  0  0
    1.1110    1.5430   -0.1404 C   0  0  0  0  0  0  0  0  0  0  0  0
   -2.7844   -1.3687    1.1646 H   0  0  0  0  0  0  0  0  0  0  0  0
   -3.6150   -1.6245   -0.4014 H   0  0  0  0  0  0  0  0  0  0  0  0
   -3.6686   -0.0283    0.4100 H   0  0  0  0  0  0  0  0  0  0  0  0
   -0.3122    1.1422   -1.7131 H   0  0  0  0  0  0  0  0  0  0  0  0
    0.0566   -1.3171   -1.7879 H   0  0  0  0  0  0  0  0  0  0  0  0
    1.5355   -0.3942   -2.0849 H   0  0  0  0  0  0  0  0  0  0  0  0
    0.7489   -1.6682    0.5741 H   0  0  0  0  0  0  0  0  0  0  0  0
    1.9795   -2.2762   -0.5375 H   0  0  0  0  0  0  0  0  0  0  0  0
    3.0121   -0.9618    1.3038 H   0  0  0  0  0  0  0  0  0  0  0  0
    3.2792   -0.1805   -0.2572 H   0  0  0  0  0  0  0  0  0  0  0  0
    1.1141    0.5581    1.7654 H   0  0  0  0  0  0  0  0  0  0  0  0
    2.5766    1.4872    1.4339 H   0  0  0  0  0  0  0  0  0  0  0  0
    0.5846    2.4100    0.2617 H   0  0  0  0  0  0  0  0  0  0  0  0
    1.8385    1.8934   -0.8762 H   0  0  0  0  0  0  0  0  0  0  0  0
  1  2  1  0  0  0  0
  2  3  1  0  0  0  0
  3  4  2  0  0  0  0
  3  5  1  0  0  0  0
  5  6  1  0  0  0  0
  6  7  1  0  0  0  0
  7  8  1  0  0  0  0
  8  9  1  0  0  0  0
  5 10  1  0  0  0  0
  9 10  1  0  0  0  0
  1 11  1  0  0  0  0
  1 12  1  0  0  0  0
  1 13  1  0  0  0  0
  5 14  1  0  0  0  0
  6 15  1  0  0  0  0
  6 16  1  0  0  0  0
  7 17  1  0  0  0  0
  7 18  1  0  0  0  0
  8 19  1  0  0  0  0
  8 20  1  0  0  0  0
  9 21  1  0  0  0  0
  9 22  1  0  0  0  0
 10 23  1  0  0  0  0
 10 24  1  0  0  0  0
M  END
