22
CONF2
C -1.1897664601 0.9025479327 1.0331490225
C -0.5109352412 0.2192914243 0.0344331838
C -1.2252567328 -0.5763889205 -0.8602235053
C -2.6118640131 -0.6763332389 -0.7601109130
C -3.2894186073 0.0196552061 0.2408845334
C -2.5677804102 0.8069750730 1.1382307342
Cl -3.3900085584 1.6617265321 2.3768864052
Cl -4.9933235000 -0.0997334361 0.3639603950
Cl -3.4853461255 -1.6543618429 -1.8619225219
Cl -0.3931249808 -1.4595183939 -2.0738405316
C 0.9596357265 0.3309977490 -0.0822122593
C 1.5458672782 1.0297277235 -1.1373110526
C 2.9224015543 1.1264006570 -1.2586399768
C 3.7364147063 0.5184665582 -0.3155914393
C 3.1796444957 -0.1830282177 0.7544125883
C 1.7922187177 -0.2685873374 0.8608353819
Cl 1.0922597400 -1.1441977314 2.1605254052
Cl 4.1847367139 -0.9330851431 1.9223707510
Cl 5.4391924330 0.6331144622 -0.4657339479
Cl 0.5396558307 1.8044983520 -2.2929702298
H -0.6415649581 1.5169367538 1.7290707001
H 3.3602472555 1.6697237964 -2.0799133179
22
CONF1
C -1.2656375190 1.2549772695 0.7262593467
C -0.5221630231 0.3127254189 0.0302155997
C -1.1732394818 -0.7512408547 -0.5930163142
C -2.5587943253 -0.8749966463 -0.5073881130
C -3.2998154495 0.0707917653 0.2012749708
C -2.6432426407 1.1378075902 0.8144815436
Cl -3.5450335928 2.3106142872 1.6818103272
Cl -5.0021092230 -0.0804648345 0.3088803295
Cl -3.3540781917 -2.1841102487 -1.2732267413
Cl -0.2699683116 -1.8997988939 -1.4929091823
C 0.9487445897 0.4404306718 -0.0615803914
C 1.5351899759 1.4426628729 -0.8328535348
C 2.9118036244 1.5562718187 -0.9394415293
C 3.7256355327 0.6596994440 -0.2647683947
C 3.1688877797 -0.3491667367 0.5222334679
C 1.7816714752 -0.4484899761 0.6166990716
Cl 1.0836571962 -1.6664761635 1.6011651961
Cl 4.1739432131 -1.4523669007 1.3642830981
Cl 5.4283384964 0.7956001783 -0.3971783737
Cl 0.5279356513 2.5434075271 -1.6856743046
H -0.7675028285 2.0816220909 1.2067177157
H 3.3495986230 2.3327120821 -1.5450680163
