22
CONF2
C -1.2067132982 1.0220423663 0.9074420651
C -0.5171905900 0.2038167975 0.0211203013
C -1.2250792169 -0.7122921858 -0.7596022925
C -2.6173896253 -0.8066780155 -0.6554957308
C -3.3065199362 0.0226519590 0.2426569814
C -2.5862416543 0.9350503791 1.0213326674
Cl -3.3981829399 1.9780904342 2.1468352641
Cl -5.0237164133 -0.0836040583 0.3834439798
Cl -3.4865236894 -1.9396804307 -1.6266644359
Cl -0.3549403453 -1.7326708117 -1.8587105268
C 0.9560771565 0.3193045244 -0.0863616396
C 1.5507728958 1.1594525494 -1.0301559282
C 2.9270332588 1.2805979548 -1.1431456124
C 3.7416741287 0.5463035529 -0.2915649559
C 3.1946562167 -0.3081159344 0.6726570999
C 1.7998982147 -0.4100046492 0.7590594800
Cl 1.0835513008 -1.4765271227 1.9245160778
Cl 4.2158024155 -1.2163323707 1.7268749224
Cl 5.4618916388 0.7122667130 -0.4495335067
Cl 0.5418747720 2.0819352992 -2.1117741728
H -0.6626084080 1.7332695552 1.5174551225
H 3.3657550070 1.9360230541 -1.8841260669
22
CONF1
C -1.2417057334 1.1300936360 0.8655632063
C -0.5277043916 0.2923352948 0.0179443019
C -1.2121967633 -0.6577235280 -0.7426920722
C -2.6038291389 -0.7710289886 -0.6521373784
C -3.3178108822 0.0775829305 0.2078909416
C -2.6214238376 1.0272607330 0.9626350111
Cl -3.4647726637 2.0991007855 2.0371762778
Cl -5.0345375384 -0.0499815090 0.3307493098
Cl -3.4416738760 -1.9511054288 -1.5941183334
Cl -0.3141900837 -1.6967637796 -1.8009494745
C 0.9455938878 0.4224970502 -0.0720781895
C 1.5424416792 1.3047567303 -0.9744852592
C 2.9190056057 1.4360058830 -1.0741256651
C 3.7321199767 0.6675521177 -0.2521559317
C 3.1827106002 -0.2300397434 0.6705353067
C 1.7881899633 -0.3388604407 0.7461448969
Cl 1.0708985906 -1.4508200521 1.8668721021
Cl 4.2008701185 -1.1826416889 1.6876897316
Cl 5.4522542693 0.8449266308 -0.3959734059
Cl 0.5372808200 2.2648148163 -2.0268576341
H -0.7168914154 1.8704053963 1.4572264303
H 3.3591162959 2.1239355965 -1.7839239557
