24
 xtb: 6.7.1 (edcfbbe)
C           -3.08497965089605       -0.90588221340166        0.23339543260351
O           -1.89196312231438       -0.59685415741991       -0.51540052052066
C           -1.09607796700294        0.34668239717161        0.04655576383156
O           -1.35988466621163        0.88507750745783        1.09681446977965
C            0.10673572424350        0.65052499190324       -0.83288096781465
C            0.78787413287283       -0.62272728838158       -1.36737985238394
C            1.49343191040600       -1.38542169906671       -0.24480561852843
C            2.51578330533682       -0.49316957462052        0.46393898170653
C            1.85314925594044        0.77421427220587        1.00874149717744
C            1.11451469706118        1.53961091356119       -0.09299299564940
H           -2.82467982892080       -1.30985015921778        1.21481866726370
H           -3.61731233281484       -1.64892474481321       -0.35949254724826
H           -3.69439217053920       -0.00912362103006        0.36863985633414
H           -0.30664512938681        1.20453658497318       -1.68873542716814
H            0.05909417433024       -1.25883597510598       -1.87608328026677
H            1.53173549519803       -0.31617174384119       -2.11463930127669
H            0.74782611499793       -1.73656815537659        0.48353663014198
H            1.98024682697243       -2.27957623907589       -0.65069781973760
H            3.00442458637576       -1.04406795856276        1.27578916663648
H            3.30313045729093       -0.21570435636264       -0.25178642418426
H            1.13936771252244        0.50464645397189        1.79620372516433
H            2.60284352730234        1.42725050956857        1.46983415647826
H            0.60269987062818        2.41006786020823        0.32753906802645
H            1.84087736098003        1.90760957694418       -0.82959548496555
