 xtb: 6.7.1 (edcfbbe)
          04162511253D

 24 24  0     0  0            999 V2000
   -2.1893   -0.9147   -0.1195 C   0  0  0  0  0  0  0  0  0  0  0  0
   -1.1065   -0.3356    0.8148 C   0  0  0  0  0  0  0  0  0  0  0  0
   -1.5442   -0.3159    1.8210 H   0  0  0  0  0  0  0  0  0  0  0  0
   -0.7299    1.1292    0.4771 C   0  0  0  0  0  0  0  0  0  0  0  0
   -1.5973    1.5994   -0.0034 H   0  0  0  0  0  0  0  0  0  0  0  0
    0.4710    1.2362   -0.4773 C   0  0  0  0  0  0  0  0  0  0  0  0
    0.8265    2.2752   -0.4508 H   0  0  0  0  0  0  0  0  0  0  0  0
    1.6154    0.3272    0.0218 C   0  0  0  0  0  0  0  0  0  0  0  0
    2.4407    0.3653   -0.7068 H   0  0  0  0  0  0  0  0  0  0  0  0
    1.0972   -1.1179    0.0933 C   0  0  0  0  0  0  0  0  0  0  0  0
    1.8417   -1.7747    0.5701 H   0  0  0  0  0  0  0  0  0  0  0  0
   -0.0024   -1.2275    0.9543 O   0  0  0  0  0  0  0  0  0  0  0  0
    0.8682   -1.6260   -1.1899 O   0  0  0  0  0  0  0  0  0  0  0  0
    2.0339    0.7948    1.2815 O   0  0  0  0  0  0  0  0  0  0  0  0
    0.1519    0.9183   -1.8129 O   0  0  0  0  0  0  0  0  0  0  0  0
   -0.5048    1.8707    1.6442 O   0  0  0  0  0  0  0  0  0  0  0  0
   -1.8152   -0.9584   -1.4755 O   0  0  0  0  0  0  0  0  0  0  0  0
   -3.0777   -0.2822   -0.0630 H   0  0  0  0  0  0  0  0  0  0  0  0
   -2.4440   -1.9188    0.2377 H   0  0  0  0  0  0  0  0  0  0  0  0
    0.7814   -0.8746   -1.8079 H   0  0  0  0  0  0  0  0  0  0  0  0
    2.6755    0.1797    1.6547 H   0  0  0  0  0  0  0  0  0  0  0  0
   -0.7292    0.4895   -1.8454 H   0  0  0  0  0  0  0  0  0  0  0  0
    0.3640    1.6209    1.9938 H   0  0  0  0  0  0  0  0  0  0  0  0
   -1.1035   -1.6176   -1.5594 H   0  0  0  0  0  0  0  0  0  0  0  0
  1  2  1  0  0  0  0
  2  3  1  0  0  0  0
  2  4  1  0  0  0  0
  4  5  1  0  0  0  0
  4  6  1  0  0  0  0
  6  7  1  0  0  0  0
  6  8  1  0  0  0  0
  8  9  1  0  0  0  0
  8 10  1  0  0  0  0
 10 11  1  0  0  0  0
  2 12  1  0  0  0  0
 10 12  1  0  0  0  0
 10 13  1  0  0  0  0
  8 14  1  0  0  0  0
  6 15  1  0  0  0  0
  4 16  1  0  0  0  0
  1 17  1  0  0  0  0
  1 18  1  0  0  0  0
  1 19  1  0  0  0  0
 13 20  1  0  0  0  0
 14 21  1  0  0  0  0
 15 22  1  0  0  0  0
 16 23  1  0  0  0  0
 17 24  1  0  0  0  0
M  END
