16
CONF3
C 0.7163049478 -1.1918935052 0.2643171089
C -0.7164176303 -1.1918947520 -0.2643633571
N -1.3869167008 -0.0000176106 0.2236411465
C -0.7163538899 1.1918718090 -0.2642800897
C 0.7164352999 1.1919339678 0.2642655288
N 1.3869496103 -0.0000088276 -0.2235873860
H 1.2496025069 -2.0712953174 -0.1032586030
H 0.6810547220 -1.2290248563 1.3667304443
H -0.6811437579 -1.2288893851 -1.3667930677
H -1.2497832634 -2.0713093820 0.1030933739
H -2.3586610780 -0.0000132038 -0.0714868851
H -0.6811909623 1.2290442056 -1.3667060381
H -1.2496275839 2.0712680017 0.1033380330
H 1.2497655771 2.0712890199 -0.1034091006
H 0.6812688074 1.2291256784 1.3666890899
H 2.3586303631 -0.0000361286 0.0717803000
16
CONF2
C 0.7261947326 -1.1978320583 0.2460160604
C -0.7252449469 -1.1896101245 -0.2494671403
N -1.4450943134 0.0000565645 0.1684851431
C -0.7253025275 1.1897456673 -0.2495182837
C 0.7261058275 1.1976869132 0.2460505101
N 1.3836061341 -0.0000438239 -0.2464524687
H 1.2526305629 -2.0717010315 -0.1431701042
H 0.7289394336 -1.2522286491 1.3524321696
H -0.7254644923 -1.2039115076 -1.3421901585
H -1.2564545861 -2.0704642185 0.1171252313
H -1.5300234126 0.0001005333 1.1829606544
H -0.7254827197 1.2039681124 -1.3422545707
H -1.2565627782 2.0705983343 0.1170092029
H 1.2525367891 2.0715855531 -0.1430423146
H 0.7288034147 1.2520261890 1.3524832776
H 2.3646824813 -0.0000359410 0.0146028471
16
CONF1
C 0.7332325353 -1.1978407765 0.2311543555
C -0.7332177827 -1.1978341187 -0.2310512992
N -1.4437773606 0.0000228534 0.1919912959
C -0.7331517156 1.1978608476 -0.2311217717
C 0.7332452249 1.1977905741 0.2312320227
N 1.4437287125 0.0000053058 -0.1922023383
H 1.2602142564 -2.0711377162 -0.1585253397
H 0.7724405100 -1.2298862392 1.3257399499
H -0.7723958146 -1.2301095726 -1.3256576903
H -1.2602114357 -2.0710652323 0.1587497239
H -1.5201825162 0.0000783656 1.2062195845
H -0.7722772014 1.2300240215 -1.3257409469
H -1.2601845806 2.0711389588 0.1585333305
H 1.2602682005 2.0711331030 -0.1582713424
H 0.7723323572 1.2297051766 1.3258340661
H 1.5193821407 0.0000075395 -1.2064904490
