16
CONF2
C 0.7286910915 -1.2068026795 0.2391743431
C -0.7214274175 -1.2068110412 -0.2438412292
N -1.4615140869 0.0000050387 0.1508324375
C -0.7214117107 1.2068149484 -0.2438305233
C 0.7287034763 1.2067875580 0.2391933351
N 1.3958180946 -0.0000069635 -0.2607508276
H 1.2547973118 -2.0904485554 -0.1436495630
H 0.7334884730 -1.2657052521 1.3477668418
H -0.7304000452 -1.2631465090 -1.3404994027
H -1.2492444582 -2.0878299335 0.1397725165
H -1.5588379796 0.0000012528 1.1634056107
H -0.7303759269 1.2631551963 -1.3404889350
H -1.2492211233 2.0878386011 0.1397827670
H 1.2548220905 2.0904344526 -0.1436106858
H 0.7334940694 1.2656685085 1.3477871052
H 2.3664873739 -0.0000141953 0.0300263516
16
CONF3
C 0.7157793892 -1.2056642122 0.2598527336
C -0.7158371683 -1.2056291679 -0.2598768338
N -1.3972732932 0.0000331703 0.2265968950
C -0.7157918684 1.2056793080 -0.2598533297
C 0.7158287182 1.2056497520 0.2598663847
N 1.3972663368 -0.0000186829 -0.2265927669
H 1.2444043787 -2.0893723999 -0.1163255374
H 0.6854140347 -1.2620142701 1.3646893652
H -0.6854743790 -1.2619519491 -1.3647152318
H -1.2444974154 -2.0893256465 0.1162787501
H -2.3584095009 0.0000549464 -0.0953727779
H -0.6854358519 1.2620276052 -1.3646905654
H -1.2444144360 2.0893877946 0.1163274349
H 1.2444853502 2.0893397940 -0.1163104475
H 0.6854750169 1.2619935557 1.3647035663
H 2.3583975537 -0.0000396840 0.0953925071
16
CONF1
C 0.7326767673 -1.2099397795 0.2235484078
C -0.7327615849 -1.2099301831 -0.2235030801
N -1.4622677927 0.0000151515 0.1841014574
C -0.7327260090 1.2099378670 -0.2235045279
C 0.7327043747 1.2099062846 0.2235680362
N 1.4622053192 -0.0000218304 -0.1841096490
H 1.2599260040 -2.0892581613 -0.1687707245
H 0.7776002442 -1.2715788016 1.3216185750
H -0.7776795813 -1.2716249497 -1.3215706515
H -1.2600337881 -2.0892174525 0.1688550222
H -1.5441064424 0.0000175443 1.1978260695
H -0.7776238323 1.2716207271 -1.3215740986
H -1.2599814866 2.0892442468 0.1688333669
H 1.2599831391 2.0892212805 -0.1687185801
H 0.7776108353 1.2715142653 1.3216410014
H 1.5439197070 -0.0000135999 -1.1978473014
