13
CONF1
C -2.3265459472 0.0066901969 0.0001504720
C -1.6166815699 1.2056093072 -0.0000713337
C -0.2253363701 1.2044664454 -0.0001125238
C 0.4676129136 -0.0104734995 0.0000402105
C -0.2384176214 -1.2171112284 0.0001968745
C -1.6302404990 -1.2000509186 0.0002692318
S 2.2513409460 0.0490928065 -0.0000939117
H -3.4115144640 0.0127324639 0.0001962728
H -2.1462968050 2.1533376514 -0.0001130137
H 0.3164825760 2.1456641162 -0.0002302589
H 0.2912226341 -2.1648043612 0.0002914961
H -2.1707817492 -2.1416989579 0.0003987887
H 2.4511939686 -1.2823652440 0.0001460017
