 xtb: 6.7.1 (edcfbbe)
          04152519513D

 18 18  0     0  0            999 V2000
   -3.1949    0.5600    0.0088 C   0  0  0  0  0  0  0  0  0  0  0  0
   -2.2940   -0.5168    0.0027 O   0  0  0  0  0  0  0  0  0  0  0  0
   -0.9516   -0.2380    0.0005 C   0  0  0  0  0  0  0  0  0  0  0  0
   -0.1002   -1.3423   -0.0008 C   0  0  0  0  0  0  0  0  0  0  0  0
    1.2668   -1.1771   -0.0071 C   0  0  0  0  0  0  0  0  0  0  0  0
    1.8303    0.0999   -0.0105 C   0  0  0  0  0  0  0  0  0  0  0  0
    0.9757    1.1972   -0.0112 C   0  0  0  0  0  0  0  0  0  0  0  0
   -0.3991    1.0356   -0.0044 C   0  0  0  0  0  0  0  0  0  0  0  0
    3.2053    0.2678    0.0613 N   0  0  0  0  0  0  0  0  0  0  0  0
   -3.0850    1.1845   -0.8846 H   0  0  0  0  0  0  0  0  0  0  0  0
   -3.0748    1.1826    0.9022 H   0  0  0  0  0  0  0  0  0  0  0  0
   -4.1887    0.1143    0.0138 H   0  0  0  0  0  0  0  0  0  0  0  0
   -0.5382   -2.3279    0.0005 H   0  0  0  0  0  0  0  0  0  0  0  0
    1.9138   -2.0425   -0.0074 H   0  0  0  0  0  0  0  0  0  0  0  0
    1.3925    2.1945   -0.0148 H   0  0  0  0  0  0  0  0  0  0  0  0
   -1.0235    1.9154   -0.0058 H   0  0  0  0  0  0  0  0  0  0  0  0
    3.7542   -0.5160   -0.2550 H   0  0  0  0  0  0  0  0  0  0  0  0
    3.5509    1.1597   -0.2564 H   0  0  0  0  0  0  0  0  0  0  0  0
  1  2  1  0  0  0  0
  2  3  1  0  0  0  0
  3  4  4  0  0  0  0
  4  5  4  0  0  0  0
  5  6  4  0  0  0  0
  6  7  4  0  0  0  0
  3  8  4  0  0  0  0
  7  8  4  0  0  0  0
  6  9  1  0  0  0  0
  1 10  1  0  0  0  0
  1 11  1  0  0  0  0
  1 12  1  0  0  0  0
  4 13  1  0  0  0  0
  5 14  1  0  0  0  0
  7 15  1  0  0  0  0
  8 16  1  0  0  0  0
  9 17  1  0  0  0  0
  9 18  1  0  0  0  0
M  END
