24
CONF1
C -3.0461659010 -1.4646689014 -0.0006543325
C -1.7459642401 -0.7155283054 -0.0000378439
C -0.5450208320 -1.3916183939 0.0001475558
C 0.6980525716 -0.7144571936 0.0002151835
C 1.9369870420 -1.4013201681 0.0002295511
C 3.1245837224 -0.7063182121 -0.0000474469
C 3.1245904659 0.7063141225 -0.0003062249
C 1.9369998318 1.4013257124 -0.0001873138
C 0.6980605111 0.7144731212 0.0000921942
C -0.5450036788 1.3916483631 0.0001844146
C -1.7459548210 0.7155734620 0.0001272916
C -3.0461423208 1.4647398538 0.0000222555
H -3.6516964741 -1.2119135079 0.8775391238
H -3.6502402453 -1.2126581115 -0.8800882307
H -2.8750488889 -2.5436524403 -0.0000894553
H -0.5412128008 -2.4792049000 0.0001321876
H 1.9325270968 -2.4880370134 0.0004124945
H 4.0687363505 -1.2422419766 -0.0000856590
H 4.0687463480 1.2422318636 -0.0006140434
H 1.9325471990 2.4880425209 -0.0003709104
H -0.5411849318 2.4792345001 0.0002494046
H -3.6517104252 1.2112531706 0.8779800788
H -2.8749970196 2.5437182316 0.0015135895
H -3.6501909951 1.2134944867 -0.8796468979
