24
CONF1
C -3.0455946357 -1.4672088772 -0.0002493268
C -1.7451077645 -0.7144105298 0.0000115690
C -0.5449137565 -1.3884900104 0.0001124429
C 0.6976940375 -0.7137226163 0.0000991726
C 1.9357610033 -1.3989490537 0.0000568038
C 3.1224384888 -0.7055675505 -0.0001023468
C 3.1224348973 0.7055863580 -0.0001743033
C 1.9357537904 1.3989618305 -0.0000883092
C 0.6976902370 0.7137289737 0.0000352497
C -0.5449213632 1.3884898038 0.0000355463
C -1.7451116092 0.7144038610 0.0000073177
C -3.0456036529 1.4671937121 -0.0000426039
H -2.8727593297 -2.5456405375 0.0004683056
H -3.6522049389 -1.2208944158 0.8789222631
H -3.6511453316 -1.2219355664 -0.8804569299
H -0.5416213111 -2.4760983351 0.0001433212
H 1.9325153853 -2.4855117929 0.0001240256
H 4.0660833117 -1.2417654591 -0.0001650471
H 4.0660771602 1.2417886547 -0.0003203088
H 1.9325027667 2.4855245437 -0.0001516694
H -0.5416334658 2.4760981648 0.0000278720
H -3.6517105669 1.2212816816 -0.8796814461
H -3.6516556451 1.2215082505 0.8796979494
H -2.8727769256 2.5456269763 -0.0001764254
