16
 xtb: 6.7.1 (edcfbbe)
C           -2.59609457694384        0.00823317193450       -0.01251285595929
C           -1.90048520447161        1.19705102346704        0.18580669138984
C           -0.50946660959828        1.19850618083331        0.18911749945917
C            0.19488199619840        0.00571838731816        0.00200610422242
C           -0.50992024617878       -1.18715444935011       -0.17563934706838
C           -1.89795188522149       -1.18394428696222       -0.19226536073810
C            1.69115358791430       -0.07073286947209        0.01094170170811
O            2.28540609352978       -1.10110327184075        0.29075586416253
N            2.35132520494382        1.09618408750553       -0.28887069567758
H           -3.68129724837401        0.00892591408734       -0.01815694938824
H           -2.44176901116718        2.12351040096505        0.34781548566133
H            0.02103925641054        2.12611595124354        0.38044695614029
H            0.05431487148220       -2.10520967577299       -0.29734333865551
H           -2.43900855075591       -2.11274415591287       -0.34080012602503
H            1.88453544721053        1.81016874475014       -0.82184891288594
H            3.34800200829063        1.01223002523204       -0.41418629749518
