 xtb: 6.7.1 (edcfbbe)
          04152519263D

 13 13  0     0  0            999 V2000
    0.0002   -2.5113    0.0004 C   0  0  0  0  0  0  0  0  0  0  0  0
    1.2054   -1.8286    0.0002 C   0  0  0  0  0  0  0  0  0  0  0  0
    1.2061   -0.4438   -0.0001 C   0  0  0  0  0  0  0  0  0  0  0  0
    0.0000    0.2669   -0.0001 C   0  0  0  0  0  0  0  0  0  0  0  0
   -1.2061   -0.4440   -0.0000 C   0  0  0  0  0  0  0  0  0  0  0  0
   -1.2051   -1.8287    0.0002 C   0  0  0  0  0  0  0  0  0  0  0  0
   -2.6934    0.4248   -0.0002 Cl  0  0  0  0  0  0  0  0  0  0  0  0
   -0.0002    1.6819   -0.0000 C   0  0  0  0  0  0  0  0  0  0  0  0
   -0.0004    2.8270    0.0009 N   0  0  0  0  0  0  0  0  0  0  0  0
    2.6934    0.4251   -0.0003 Cl  0  0  0  0  0  0  0  0  0  0  0  0
    0.0002   -3.5902    0.0006 H   0  0  0  0  0  0  0  0  0  0  0  0
    2.1425   -2.3611    0.0002 H   0  0  0  0  0  0  0  0  0  0  0  0
   -2.1422   -2.3613    0.0003 H   0  0  0  0  0  0  0  0  0  0  0  0
  1  2  4  0  0  0  0
  2  3  4  0  0  0  0
  3  4  4  0  0  0  0
  4  5  4  0  0  0  0
  1  6  4  0  0  0  0
  5  6  4  0  0  0  0
  5  7  1  0  0  0  0
  4  8  1  0  0  0  0
  8  9  3  0  0  0  0
  3 10  1  0  0  0  0
  1 11  1  0  0  0  0
  2 12  1  0  0  0  0
  6 13  1  0  0  0  0
M  END
