 xtb: 6.7.1 (edcfbbe)
          04152520283D

 11 10  0     0  0            999 V2000
   -2.3293   -0.8302   -0.2443 C   0  0  0  0  0  0  0  0  0  0  0  0
   -0.9326   -0.5937   -0.1172 O   0  0  0  0  0  0  0  0  0  0  0  0
   -0.5566    0.6733   -0.0350 C   0  0  0  0  0  0  0  0  0  0  0  0
   -1.3047    1.6137   -0.0609 O   0  0  0  0  0  0  0  0  0  0  0  0
    0.9476    0.8429    0.0957 C   0  0  0  0  0  0  0  0  0  0  0  0
    1.8237   -0.6968    0.1594 Cl  0  0  0  0  0  0  0  0  0  0  0  0
   -2.7105   -0.3600   -1.1526 H   0  0  0  0  0  0  0  0  0  0  0  0
   -2.8615   -0.4186    0.6152 H   0  0  0  0  0  0  0  0  0  0  0  0
   -2.4492   -1.9091   -0.2905 H   0  0  0  0  0  0  0  0  0  0  0  0
    1.1626    1.4001    1.0090 H   0  0  0  0  0  0  0  0  0  0  0  0
    1.3141    1.4111   -0.7610 H   0  0  0  0  0  0  0  0  0  0  0  0
  1  2  1  0  0  0  0
  2  3  1  0  0  0  0
  3  4  2  0  0  0  0
  3  5  1  0  0  0  0
  5  6  1  0  0  0  0
  1  7  1  0  0  0  0
  1  8  1  0  0  0  0
  1  9  1  0  0  0  0
  5 10  1  0  0  0  0
  5 11  1  0  0  0  0
M  END
