 xtb: 6.7.1 (edcfbbe)
          04152519363D

 25 27  0     0  0            999 V2000
    1.5891    1.6239    0.7909 C   0  0  0  0  0  0  0  0  0  0  0  0
    0.2949    0.8769    1.1678 C   0  0  0  0  0  0  0  0  0  0  0  0
   -0.0426    1.2671    2.1308 H   0  0  0  0  0  0  0  0  0  0  0  0
    0.3286   -0.6789    1.2513 C   0  0  0  0  0  0  0  0  0  0  0  0
   -0.0403   -0.9912    2.2317 H   0  0  0  0  0  0  0  0  0  0  0  0
    1.6636   -1.4046    1.0395 C   0  0  0  0  0  0  0  0  0  0  0  0
    2.4537   -0.8421    0.0302 O   0  0  0  0  0  0  0  0  0  0  0  0
    3.6853    0.1348    0.6195 S   0  0  0  0  0  0  0  0  0  0  0  0
    4.4033   -0.5863    1.6172 O   0  0  0  0  0  0  0  0  0  0  0  0
    2.6958    1.1519    1.5007 O   0  0  0  0  0  0  0  0  0  0  0  0
   -0.7388   -1.0921    0.2009 C   0  0  0  0  0  0  0  0  0  0  0  0
   -0.2228   -0.6947   -1.1672 C   0  0  0  0  0  0  0  0  0  0  0  0
   -0.2805    0.6432   -1.2313 C   0  0  0  0  0  0  0  0  0  0  0  0
   -0.8091    1.1337    0.1042 C   0  0  0  0  0  0  0  0  0  0  0  0
   -1.8120    0.0005    0.4111 C   0  0  0  0  0  0  0  0  0  0  0  0
   -3.1402   -0.0895   -0.7513 Cl  0  0  0  0  0  0  0  0  0  0  0  0
   -2.4941    0.0517    2.0316 Cl  0  0  0  0  0  0  0  0  0  0  0  0
   -1.4482    2.7631    0.1075 Cl  0  0  0  0  0  0  0  0  0  0  0  0
    0.1805    1.6703   -2.4960 Cl  0  0  0  0  0  0  0  0  0  0  0  0
    0.3429   -1.7961   -2.3085 Cl  0  0  0  0  0  0  0  0  0  0  0  0
   -1.2860   -2.7483    0.3450 Cl  0  0  0  0  0  0  0  0  0  0  0  0
    1.4559    2.6836    1.0310 H   0  0  0  0  0  0  0  0  0  0  0  0
    1.7769    1.5324   -0.2840 H   0  0  0  0  0  0  0  0  0  0  0  0
    2.2322   -1.4018    1.9779 H   0  0  0  0  0  0  0  0  0  0  0  0
    1.4556   -2.4457    0.7712 H   0  0  0  0  0  0  0  0  0  0  0  0
  1  2  1  0  0  0  0
  2  3  1  0  0  0  0
  2  4  1  0  0  0  0
  4  5  1  0  0  0  0
  4  6  1  0  0  0  0
  6  7  1  0  0  0  0
  7  8  1  0  0  0  0
  8  9  2  0  0  0  0
  1 10  1  0  0  0  0
  8 10  1  0  0  0  0
  4 11  1  0  0  0  0
 11 12  1  0  0  0  0
 12 13  2  0  0  0  0
  2 14  1  0  0  0  0
 13 14  1  0  0  0  0
 11 15  1  0  0  0  0
 14 15  1  0  0  0  0
 15 16  1  0  0  0  0
 15 17  1  0  0  0  0
 14 18  1  0  0  0  0
 13 19  1  0  0  0  0
 12 20  1  0  0  0  0
 11 21  1  0  0  0  0
  1 22  1  0  0  0  0
  1 23  1  0  0  0  0
  6 24  1  0  0  0  0
  6 25  1  0  0  0  0
M  END
