 xtb: 6.7.1 (edcfbbe)
          04152519523D

 15 15  0     0  0            999 V2000
   -2.3318   -0.5730   -0.0012 C   0  0  0  0  0  0  0  0  0  0  0  0
   -0.9139   -0.6227   -0.0012 O   0  0  0  0  0  0  0  0  0  0  0  0
   -0.2871    0.5663    0.0013 C   0  0  0  0  0  0  0  0  0  0  0  0
   -0.8734    1.6194    0.0030 O   0  0  0  0  0  0  0  0  0  0  0  0
    1.1879    0.4334    0.0008 C   0  0  0  0  0  0  0  0  0  0  0  0
    1.8417   -0.7071    0.7420 C   0  0  0  0  0  0  0  0  0  0  0  0
    1.8418   -0.7047   -0.7439 C   0  0  0  0  0  0  0  0  0  0  0  0
   -2.6725   -1.6053   -0.0056 H   0  0  0  0  0  0  0  0  0  0  0  0
   -2.6934   -0.0450   -0.8859 H   0  0  0  0  0  0  0  0  0  0  0  0
   -2.6936   -0.0526    0.8880 H   0  0  0  0  0  0  0  0  0  0  0  0
    1.6833    1.3954    0.0024 H   0  0  0  0  0  0  0  0  0  0  0  0
    2.7607   -0.4942    1.2662 H   0  0  0  0  0  0  0  0  0  0  0  0
    1.1905   -1.4021    1.2482 H   0  0  0  0  0  0  0  0  0  0  0  0
    2.7608   -0.4902   -1.2672 H   0  0  0  0  0  0  0  0  0  0  0  0
    1.1906   -1.3981   -1.2523 H   0  0  0  0  0  0  0  0  0  0  0  0
  1  2  1  0  0  0  0
  2  3  1  0  0  0  0
  3  4  2  0  0  0  0
  3  5  1  0  0  0  0
  5  6  1  0  0  0  0
  5  7  1  0  0  0  0
  6  7  1  0  0  0  0
  1  8  1  0  0  0  0
  1  9  1  0  0  0  0
  1 10  1  0  0  0  0
  5 11  1  0  0  0  0
  6 12  1  0  0  0  0
  6 13  1  0  0  0  0
  7 14  1  0  0  0  0
  7 15  1  0  0  0  0
M  END
