17
 xtb: 6.7.1 (edcfbbe)
C           -2.07079826744416        0.45429873343478       -0.32825051027515
C           -0.83172745691834        0.27871949321843        0.54837472208938
C            0.42536066104711       -0.14940413403655       -0.25173449459413
C            1.52141470591006        0.91664457167928       -0.18814287272930
C            0.95901864410258       -1.50296821361981        0.22171874440557
H           -2.94171137344523        0.76041738162940        0.25998331532202
H           -2.32277660493580       -0.48175846112251       -0.83887435867078
H           -1.90076937673599        1.21550969509311       -1.09774749817980
H           -0.62863775002058        1.21799459061642        1.07767540315472
H           -1.04369519953342       -0.46501586793284        1.32633210643733
H            0.12940333594785       -0.25903156616054       -1.30478101721261
H            1.15515516371794        1.88411299264986       -0.54806603602268
H            2.38850158054281        0.63550534572803       -0.79529077146314
H            1.86429606330701        1.05146575788620        0.84473945646568
H            1.27979261720858       -1.44358022620027        1.26870214701292
H            1.81934039751411       -1.82472354487413       -0.37483974996115
H            0.18898732611204       -2.27870976026260        0.15134074315478
