22
CONF1
C 0.9559955934 1.6220230359 -1.8022357966
C 2.0768053442 1.7639456186 -1.0916291268
C 2.4264124975 0.5339408015 -0.3280218923
H 2.6283549470 0.7027784879 0.7313018025
C 1.2840318119 -0.4536074190 -0.6150809354
H 1.6535116276 -1.3978008009 -1.0139220124
C 0.3365697227 0.2731993361 -1.6254658340
H 0.2177457271 -0.2668755730 -2.5686743236
C -1.0396817494 0.2704868490 -0.8659792080
C -0.8999646321 1.1841697737 0.3377996518
C -0.0761220012 0.5842935146 1.2057420080
C 0.3465503424 -0.7442040882 0.5940776413
C -0.9865906716 -1.1092154653 -0.1393087781
Cl -2.3629011750 -1.4067095606 0.9662800205
Cl -0.8538468941 -2.5062712190 -1.2454736356
Cl 0.9641915782 -1.9520096867 1.7345694600
Cl 0.5080211664 1.1982049897 2.6874234880
Cl -1.5691798315 2.7477292761 0.4396409278
Cl -2.4546313791 0.5568390734 -1.8914735375
Cl 4.0488021560 -0.1406243872 -0.9561809258
H 0.5155837477 2.3836989829 -2.4364029695
H 2.6998521637 2.6501688500 -1.0579685614
