22
CONF1
C 0.9578337508 1.6162368624 -1.7915443190
C 2.0791669245 1.7505399318 -1.0818876825
C 2.4315949074 0.5121135146 -0.3272676853
H 2.6221493715 0.6724842760 0.7363596739
C 1.2760622566 -0.4623477396 -0.6102760896
H 1.6399988661 -1.4105687433 -1.0045025270
C 0.3304083915 0.2704325842 -1.6160249385
H 0.2024746186 -0.2683681480 -2.5591436835
C -1.0477637083 0.2703164225 -0.8581306612
C -0.9027509375 1.1857556455 0.3435038854
C -0.0749887043 0.5858494341 1.2079442370
C 0.3395895564 -0.7476505942 0.6011564613
C -0.9964670003 -1.1109613724 -0.1313602991
Cl -2.3684110354 -1.4103998967 0.9666638560
Cl -0.8562372260 -2.5036588272 -1.2452745786
Cl 0.9653624824 -1.9480860110 1.7383823770
Cl 0.5325912597 1.2083137432 2.6766761494
Cl -1.5645527790 2.7520261552 0.4397182587
Cl -2.4502080360 0.5643374264 -1.8934669978
Cl 4.0340178185 -0.1570228148 -0.9627516928
H 0.5217243576 2.3829678369 -2.4222469402
H 2.7093009860 2.6316304648 -1.0526423562
