24
 xtb: 6.7.1 (edcfbbe)
C           -3.42308372415712       -0.79009166544846       -0.04361929906653
O           -2.00673946671486       -0.78771657628261       -0.31708427816120
C           -1.35680015657275        0.33716734700840        0.06603467181648
O           -1.91283717965888        1.26754094648963        0.60399551467202
C            0.12002605533191        0.30127761183395       -0.28235935144661
C            0.68352719635004       -1.09833509727547       -0.55617335588575
C            2.17175973595764       -1.02666767451960       -0.90901158690268
C            2.97530517833865       -0.31302322253121        0.17902231362678
C            2.41187587019513        1.08508178260123        0.44001369539160
C            0.92814610319084        1.02780407328948        0.80394761567558
H           -3.78352983609953       -1.76132962363896       -0.38270545000493
H           -3.91748122768844        0.01841718882777       -0.58858681016730
H           -3.60507299468774       -0.66069368494963        1.02636676073892
H            0.20159645404855        0.89104943648894       -1.21095025300976
H            0.54695145921976       -1.71882375968659        0.33970402149312
H            0.12465711026635       -1.58203002500348       -1.36203100833562
H            2.56191148517536       -2.03768311773863       -1.07253129120263
H            2.29112206504800       -0.48538582822029       -1.85841460602409
H            2.92775771653307       -0.89986556880273        1.10715223940085
H            4.03229555577724       -0.25304893395559       -0.10471763778992
H            2.97107292581150        1.58020549618006        1.24192983846312
H            2.54035035768216        1.70142884266559       -0.46117500099536
H            0.80392377128165        0.48569311636905        1.75177502867047
H            0.51835590971089        2.02979719643174        0.95616575914465
