16
 xtb: 6.7.1 (edcfbbe)
C            1.47965928512561       -0.65576769476612       -1.09698863725109
C            0.66121469872154       -0.49435135788866        0.17789636684791
C            1.33433187187756        0.47217559830537        1.16803869830117
C           -0.75931086173744       -0.02756663345686       -0.12188360353910
O           -1.12508339852628        0.23892533986050       -1.24822279983775
C           -1.70075098996477        0.11845183168846        1.05805470602129
H            1.59140658109836        0.30653742109127       -1.60472407131576
H            2.47545291085300       -1.04342173260071       -0.86201936578146
H            0.99160329225420       -1.33815263832351       -1.79661025061304
H            0.56245719524795       -1.47007097112352        0.67886176071888
H            2.35416210619421        0.13861683078976        1.38068922154298
H            0.79655454671558        0.53522836522102        2.11803490903950
H            1.39204873045080        1.47788197475066        0.73749439670229
H           -2.73164271560562        0.02019380252031        0.71464232539847
H           -1.57933237583512        1.12237102079924        1.48210767922585
H           -1.48867364206567       -0.60215857394494        1.85287607821641
