11
CONF1
C 0.4002825056 -1.7172542318 0.1513298195
C 0.4372924988 -0.2846382129 -0.3321259708
H 0.3085614407 -0.2221680512 -1.4156163744
C -0.5368682433 0.6469928593 0.3645808529
Cl -2.2492813580 0.1755176132 -0.0531096467
Cl 2.1040600799 0.4288922795 -0.0022103837
H -0.5850324576 -2.1442615989 -0.0572765327
H 1.1558614740 -2.3155231309 -0.3611637527
H 0.5842043435 -1.7666454057 1.2281231403
H -0.4390599685 0.5839313009 1.4503712185
H -0.4072143760 1.6781150096 0.0353346678
