 xtb: 6.7.1 (edcfbbe)
          04152520163D

 24 24  0     0  0            999 V2000
   -3.3875   -0.0479    0.1953 C   0  0  0  0  0  0  0  0  0  0  0  0
   -2.2222    0.0728   -0.6083 O   0  0  0  0  0  0  0  0  0  0  0  0
   -1.0463   -0.0108    0.0341 C   0  0  0  0  0  0  0  0  0  0  0  0
   -0.9668   -0.1783    1.2228 O   0  0  0  0  0  0  0  0  0  0  0  0
    0.0969    0.1348   -0.9476 C   0  0  0  0  0  0  0  0  0  0  0  0
    0.9669   -1.1307   -0.9696 C   0  0  0  0  0  0  0  0  0  0  0  0
    1.7691   -1.2938    0.3171 C   0  0  0  0  0  0  0  0  0  0  0  0
    2.6372   -0.0643    0.5612 C   0  0  0  0  0  0  0  0  0  0  0  0
    1.7550    1.1749    0.6666 C   0  0  0  0  0  0  0  0  0  0  0  0
    0.9526    1.3664   -0.6161 C   0  0  0  0  0  0  0  0  0  0  0  0
   -3.4024   -1.0174    0.6974 H   0  0  0  0  0  0  0  0  0  0  0  0
   -4.2346    0.0468   -0.4789 H   0  0  0  0  0  0  0  0  0  0  0  0
   -3.4086    0.7387    0.9523 H   0  0  0  0  0  0  0  0  0  0  0  0
   -0.3598    0.2717   -1.9333 H   0  0  0  0  0  0  0  0  0  0  0  0
    0.3340   -2.0064   -1.1316 H   0  0  0  0  0  0  0  0  0  0  0  0
    1.6536   -1.0525   -1.8165 H   0  0  0  0  0  0  0  0  0  0  0  0
    1.0850   -1.4203    1.1567 H   0  0  0  0  0  0  0  0  0  0  0  0
    2.3915   -2.1884    0.2456 H   0  0  0  0  0  0  0  0  0  0  0  0
    3.2108   -0.1912    1.4810 H   0  0  0  0  0  0  0  0  0  0  0  0
    3.3451    0.0565   -0.2634 H   0  0  0  0  0  0  0  0  0  0  0  0
    1.0709    1.0558    1.5072 H   0  0  0  0  0  0  0  0  0  0  0  0
    2.3672    2.0611    0.8471 H   0  0  0  0  0  0  0  0  0  0  0  0
    0.3096    2.2454   -0.5297 H   0  0  0  0  0  0  0  0  0  0  0  0
    1.6387    1.5340   -1.4504 H   0  0  0  0  0  0  0  0  0  0  0  0
  1  2  1  0  0  0  0
  2  3  1  0  0  0  0
  3  4  2  0  0  0  0
  3  5  1  0  0  0  0
  5  6  1  0  0  0  0
  6  7  1  0  0  0  0
  7  8  1  0  0  0  0
  8  9  1  0  0  0  0
  5 10  1  0  0  0  0
  9 10  1  0  0  0  0
  1 11  1  0  0  0  0
  1 12  1  0  0  0  0
  1 13  1  0  0  0  0
  5 14  1  0  0  0  0
  6 15  1  0  0  0  0
  6 16  1  0  0  0  0
  7 17  1  0  0  0  0
  7 18  1  0  0  0  0
  8 19  1  0  0  0  0
  8 20  1  0  0  0  0
  9 21  1  0  0  0  0
  9 22  1  0  0  0  0
 10 23  1  0  0  0  0
 10 24  1  0  0  0  0
M  END
