12
 xtb: 6.7.1 (edcfbbe)
C           -1.95970321731183        0.14757587877008       -0.00563206822600
C           -0.58922801923117       -0.52732098255867        0.02539554746627
C            0.54486239634473        0.48778995451188       -0.02685503318017
O            1.83988584661776       -0.11293338968553        0.05933579590895
H           -2.08628020864295        0.74490370015934       -0.91480825377552
H           -2.76594976302342       -0.59015911919765        0.02373460670840
H           -2.08704743464228        0.81581912185567        0.85244320260938
H           -0.49642247320150       -1.21597490784913       -0.82605869718908
H           -0.47876255970238       -1.12997339161381        0.93421017973535
H            0.45796529296606        1.10304687735818       -0.93780738355187
H            0.48062082033524        1.16577458376817        0.83149099872578
H            1.93255440600479       -0.71623909695407       -0.68617491988929
