 xtb: 6.7.1 (edcfbbe)
          04152520153D

  9  8  0     0  0            999 V2000
   -2.2717    0.3276   -0.2635 C   0  0  0  0  0  0  0  0  0  0  0  0
   -1.2292   -0.0365    0.4607 C   0  0  0  0  0  0  0  0  0  0  0  0
   -0.0767   -0.8050   -0.0796 C   0  0  0  0  0  0  0  0  0  0  0  0
    1.4026    0.2188   -0.0321 Cl  0  0  0  0  0  0  0  0  0  0  0  0
   -3.0876    0.8880    0.1586 H   0  0  0  0  0  0  0  0  0  0  0  0
   -2.3546    0.0719   -1.3071 H   0  0  0  0  0  0  0  0  0  0  0  0
   -1.1549    0.2373    1.5041 H   0  0  0  0  0  0  0  0  0  0  0  0
    0.1467   -1.6820    0.5285 H   0  0  0  0  0  0  0  0  0  0  0  0
   -0.2283   -1.0910   -1.1197 H   0  0  0  0  0  0  0  0  0  0  0  0
  1  2  2  0  0  0  0
  2  3  1  0  0  0  0
  3  4  1  0  0  0  0
  1  5  1  0  0  0  0
  1  6  1  0  0  0  0
  2  7  1  0  0  0  0
  3  8  1  0  0  0  0
  3  9  1  0  0  0  0
M  END
