8
CONF1
C -1.4465618763 0.0525870267 -0.0028515265
C 0.0379354458 -0.0857412237 -0.0049325183
O 0.6543130305 -1.1372377973 -0.0021885792
O 0.6628922694 1.1165634368 0.0011128875
H -1.7608180904 0.4895204267 0.9507897132
H -1.7631194104 0.7357320990 -0.7953250655
H -1.9136120856 -0.9226450591 -0.1308691606
H 1.6231885798 0.9613279613 0.0141446975
