8
CONF1
C -1.4504055457 0.0526593170 -0.0001533097
C 0.0425637396 -0.0968587438 -0.0003606150
O 0.6549557637 -1.1366985563 -0.0002476104
O 0.6586255986 1.1183000483 0.0000642635
H -1.7654640054 0.6260248097 -0.8764844190
H -1.9151148778 -0.9316899636 -0.0068189017
H -1.7655404078 0.6132338559 0.8844877884
H 1.6124207838 0.9417699863 0.0006928500
