22
 xtb: 6.7.1 (edcfbbe)
C            1.16718250642175       -0.69486843599515        0.00106128388701
C            1.16717463166345        0.69486655187479        0.00110159099848
C            2.36797649036122        1.39811237583167        0.00047327719474
C            3.58314896895207        0.69972689379441       -0.00024877476503
C            3.58315542478722       -0.69970931421441       -0.00036519128837
C            2.36798962717820       -1.39810449199553        0.00024208202781
Cl           2.31685142105980       -3.12347341555249        0.00010644974723
Cl           5.07125374945361       -1.57383775066859       -0.00130896697422
Cl           5.07124057979672        1.57386731246706       -0.00098572394397
Cl           2.31682646885380        3.12348039497829        0.00065666735891
O           -0.00000475112477        1.41489966579619        0.00192641530024
C           -1.16717899822068        0.69485909709904        0.00108537541063
C           -1.16717607999355       -0.69487576380289        0.00110041352987
C           -2.36797942697387       -1.39811818121787        0.00047677153752
C           -3.58314920204360       -0.69973053385562       -0.00021882399556
C           -3.58315242265734        0.69970562944005       -0.00031437616444
C           -2.36798426156891        1.39809897161691        0.00029149143252
Cl          -2.31684433294905        3.12346547821751        0.00017751819036
Cl          -5.07124990605948        1.57383323454271       -0.00123929979357
Cl          -5.07124182255083       -1.57387129576083       -0.00095323685448
Cl          -2.31683204669889       -3.12348805620739        0.00063071159864
O            0.00000559799988       -1.41491500834789        0.00189160398781
