23
 xtb: 6.7.1 (edcfbbe)
C           -2.25082856295030       -0.71193350855803        1.14440243102533
C           -1.79146209086105       -0.00110251216118       -0.11028899466216
O           -2.58605354034583        0.54359550622097       -0.85146434686850
C           -0.29922527803361        0.04212264635819       -0.40277583107769
C            0.44500847535706       -1.26953757838760       -0.11667907947627
C            1.93036419397887       -1.13639174056520       -0.46252793076316
C            2.57316804928050        0.01821574500256        0.30876845497383
C            1.82964131090109        1.33086465222361        0.05425569332497
C            0.34133567777745        1.20292432659873        0.38744284808934
H           -3.29657768501644       -0.47189137331328        1.33855546464496
H           -2.15136907156828       -1.79494620988509        1.00586918382314
H           -1.63267974167806       -0.44564883269673        2.00772577202251
H           -0.21471823673486        0.27950280342099       -1.47122621063365
H            0.34965275569918       -1.52557552306766        0.94724892007561
H           -0.00653424167048       -2.09056349096694       -0.68682720945518
H            2.45052000718850       -2.07639468245692       -0.24597083678235
H            2.03583122031269       -0.95636407147408       -1.54114664587556
H            2.54867222404489       -0.20869235431686        1.38399811681888
H            3.62827311743731        0.12008022229125        0.03092359259359
H            2.27296119392970        2.14177084537835        0.64358717847544
H            1.93756420439723        1.61075161210778       -1.00245628202610
H            0.22641848833060        1.01757205402002        1.46466383471996
H           -0.18601668140011        2.13572196724069        0.15915106801841
