 xtb: 6.7.1 (edcfbbe)
          04152520183D

 15 15  0     0  0            999 V2000
   -1.0017   -1.8090    0.0001 C   0  0  0  0  0  0  0  0  0  0  0  0
    0.3650   -1.6114   -0.0001 C   0  0  0  0  0  0  0  0  0  0  0  0
    0.8750   -0.3126   -0.0001 C   0  0  0  0  0  0  0  0  0  0  0  0
    0.0086    0.7763   -0.0001 C   0  0  0  0  0  0  0  0  0  0  0  0
   -1.3657    0.5734    0.0000 C   0  0  0  0  0  0  0  0  0  0  0  0
   -1.8660   -0.7264    0.0001 C   0  0  0  0  0  0  0  0  0  0  0  0
   -2.1771    1.6590    0.0000 O   0  0  0  0  0  0  0  0  0  0  0  0
    2.3259   -0.0845   -0.0003 C   0  0  0  0  0  0  0  0  0  0  0  0
    2.8657    0.9914   -0.0003 O   0  0  0  0  0  0  0  0  0  0  0  0
   -1.4055   -2.8103    0.0001 H   0  0  0  0  0  0  0  0  0  0  0  0
    1.0401   -2.4540   -0.0001 H   0  0  0  0  0  0  0  0  0  0  0  0
    0.4063    1.7788   -0.0002 H   0  0  0  0  0  0  0  0  0  0  0  0
   -2.9361   -0.8882    0.0002 H   0  0  0  0  0  0  0  0  0  0  0  0
   -3.1029    1.3864    0.0001 H   0  0  0  0  0  0  0  0  0  0  0  0
    2.9207   -1.0207   -0.0003 H   0  0  0  0  0  0  0  0  0  0  0  0
  1  2  4  0  0  0  0
  2  3  4  0  0  0  0
  3  4  4  0  0  0  0
  4  5  4  0  0  0  0
  1  6  4  0  0  0  0
  5  6  4  0  0  0  0
  5  7  1  0  0  0  0
  3  8  1  0  0  0  0
  8  9  2  0  0  0  0
  1 10  1  0  0  0  0
  2 11  1  0  0  0  0
  4 12  1  0  0  0  0
  6 13  1  0  0  0  0
  7 14  1  0  0  0  0
  8 15  1  0  0  0  0
M  END
