15
 xtb: 6.7.1 (edcfbbe)
C           -0.14003407342208       -1.34897028175911       -0.00005202010046
C            1.23572165302817       -1.19929807638523       -0.00000358033362
C            1.78020513089180        0.08729646336355        0.00001826108876
C            0.94692161692843        1.21415530718185        0.00003552287187
C           -0.42526659801813        1.04987955334102        0.00003022425741
C           -0.98597421923489       -0.23353101504525       -0.00008288851363
C           -2.44241285867797       -0.41464081049243       -0.00038860814820
O           -3.25508044486253        0.48924087390871        0.00007418446255
O            3.13550273212431        0.18561454990200        0.00001773484347
H           -0.57285464326499       -2.34639029980924       -0.00007163846057
H            1.90366762105316       -2.05347904271681       -0.00000660434329
H            1.38245979997864        2.21063836809925        0.00002843287840
H           -1.09175976224598        1.90644573643537       -0.00000537872522
H           -2.77413635818320       -1.47958492349929        0.00033874001696
H            3.39185711026407        1.11542359972017        0.00002412118863
