 xtb: 6.7.1 (edcfbbe)
          04152520283D

 11 10  0     0  0            999 V2000
   -2.3378   -0.8438   -0.3878 C   0  0  0  0  0  0  0  0  0  0  0  0
   -0.9556   -0.6402   -0.1211 O   0  0  0  0  0  0  0  0  0  0  0  0
   -0.6110    0.5655    0.3057 C   0  0  0  0  0  0  0  0  0  0  0  0
   -1.3765    1.4748    0.4833 O   0  0  0  0  0  0  0  0  0  0  0  0
    0.8771    0.6930    0.5842 C   0  0  0  0  0  0  0  0  0  0  0  0
    1.8306   -0.6305   -0.1110 Cl  0  0  0  0  0  0  0  0  0  0  0  0
   -2.9265   -0.6666    0.5141 H   0  0  0  0  0  0  0  0  0  0  0  0
   -2.4328   -1.8763   -0.7130 H   0  0  0  0  0  0  0  0  0  0  0  0
   -2.6760   -0.1608   -1.1691 H   0  0  0  0  0  0  0  0  0  0  0  0
    1.0329    0.6896    1.6649 H   0  0  0  0  0  0  0  0  0  0  0  0
    1.2379    1.6369    0.1741 H   0  0  0  0  0  0  0  0  0  0  0  0
  1  2  1  0  0  0  0
  2  3  1  0  0  0  0
  3  4  2  0  0  0  0
  3  5  1  0  0  0  0
  5  6  1  0  0  0  0
  1  7  1  0  0  0  0
  1  8  1  0  0  0  0
  1  9  1  0  0  0  0
  5 10  1  0  0  0  0
  5 11  1  0  0  0  0
M  END
