19
CONF2
C -3.0940355484 0.3705860416 -0.0036457772
C -1.6312888344 0.0253083713 -0.0108693407
C -1.1931554961 -1.2960708371 -0.1042970819
C 0.1709137589 -1.5894965793 -0.1076112012
C 1.1401363814 -0.5925157170 -0.0187261899
C 0.6854794401 0.7317904181 0.0748392055
C -0.6713942292 1.0385539275 0.0786406231
O 1.6495181295 1.7146870690 0.1635990414
C 2.6087168987 -0.8977045024 -0.0152783874
H -3.7103111562 -0.5266087052 -0.0999348205
H -3.3743039630 0.8792349170 0.9253292022
H -3.3435725082 1.0478254026 -0.8276370601
H -1.9192271783 -2.1005666125 -0.1755909494
H 0.4960355581 -2.6241007127 -0.1813326083
H -0.9821154569 2.0789739272 0.1525684358
H 1.2148454047 2.5771008080 0.2202547627
H 3.1302654211 -0.3688425184 -0.8198772791
H 3.0788546287 -0.5865808677 0.9241352209
H 2.7765771614 -1.9691259214 -0.1428931810
