 xtb: 6.7.1 (edcfbbe)
          04152520333D

 24 24  0     0  0            999 V2000
   -2.9065   -1.6401    0.0000 C   0  0  0  0  0  0  0  0  0  0  0  0
   -2.6770   -0.2143   -0.0011 N   0  0  0  0  0  0  0  0  0  0  0  0
   -3.8438    0.6380    0.0016 C   0  0  0  0  0  0  0  0  0  0  0  0
   -1.4406    0.3774   -0.0002 C   0  0  0  0  0  0  0  0  0  0  0  0
   -1.3112    1.5856   -0.0002 O   0  0  0  0  0  0  0  0  0  0  0  0
   -0.3894   -0.5108    0.0006 N   0  0  0  0  0  0  0  0  0  0  0  0
    0.9788   -0.2357    0.0003 C   0  0  0  0  0  0  0  0  0  0  0  0
    1.5024    1.0538    0.0001 C   0  0  0  0  0  0  0  0  0  0  0  0
    2.8726    1.2391   -0.0001 C   0  0  0  0  0  0  0  0  0  0  0  0
    3.7369    0.1577   -0.0003 C   0  0  0  0  0  0  0  0  0  0  0  0
    3.2187   -1.1264   -0.0001 C   0  0  0  0  0  0  0  0  0  0  0  0
    1.8518   -1.3237    0.0002 C   0  0  0  0  0  0  0  0  0  0  0  0
   -2.4889   -2.1197   -0.8916 H   0  0  0  0  0  0  0  0  0  0  0  0
   -3.9805   -1.8129   -0.0032 H   0  0  0  0  0  0  0  0  0  0  0  0
   -2.4945   -2.1177    0.8954 H   0  0  0  0  0  0  0  0  0  0  0  0
   -4.4527    0.4596   -0.8880 H   0  0  0  0  0  0  0  0  0  0  0  0
   -3.5005    1.6703    0.0002 H   0  0  0  0  0  0  0  0  0  0  0  0
   -4.4482    0.4605    0.8945 H   0  0  0  0  0  0  0  0  0  0  0  0
   -0.6071   -1.4946    0.0011 H   0  0  0  0  0  0  0  0  0  0  0  0
    0.8322    1.8963    0.0002 H   0  0  0  0  0  0  0  0  0  0  0  0
    3.2676    2.2443   -0.0002 H   0  0  0  0  0  0  0  0  0  0  0  0
    4.8055    0.3120   -0.0004 H   0  0  0  0  0  0  0  0  0  0  0  0
    3.8808   -1.9801   -0.0002 H   0  0  0  0  0  0  0  0  0  0  0  0
    1.4525   -2.3297    0.0002 H   0  0  0  0  0  0  0  0  0  0  0  0
  1  2  1  0  0  0  0
  2  3  1  0  0  0  0
  2  4  1  0  0  0  0
  4  5  2  0  0  0  0
  4  6  1  0  0  0  0
  6  7  1  0  0  0  0
  7  8  4  0  0  0  0
  8  9  4  0  0  0  0
  9 10  4  0  0  0  0
 10 11  4  0  0  0  0
  7 12  4  0  0  0  0
 11 12  4  0  0  0  0
  1 13  1  0  0  0  0
  1 14  1  0  0  0  0
  1 15  1  0  0  0  0
  3 16  1  0  0  0  0
  3 17  1  0  0  0  0
  3 18  1  0  0  0  0
  6 19  1  0  0  0  0
  8 20  1  0  0  0  0
  9 21  1  0  0  0  0
 10 22  1  0  0  0  0
 11 23  1  0  0  0  0
 12 24  1  0  0  0  0
M  END
