17
CONF2
C -2.5708603808 0.9740825885 0.0108695336
C -1.2427503256 0.2739816586 -0.0106585284
C -1.1530702231 -1.1175827189 -0.0087593156
C 0.1038603946 -1.7104553888 0.0019430614
N 1.2510876314 -1.0278181874 0.0089340600
C 1.1759630743 0.3120775656 0.0046666695
C -0.0453981284 0.9880792373 -0.0056718144
C 2.4833068826 1.0512624496 -0.0012623385
H -3.3353719734 0.3906882856 -0.5091466283
H -2.9104718674 1.1152585557 1.0437366835
H -2.5084075528 1.9617900308 -0.4533853425
H -2.0487866171 -1.7317845106 -0.0165357038
H 0.1939496365 -2.7963255491 0.0026602870
H -0.0617794544 2.0747733813 -0.0118064473
H 2.3400519536 2.1295821985 0.0993369124
H 3.1191331714 0.6962113279 0.8148553754
H 3.0217524376 0.8548588437 -0.9344205044
17
CONF1
C -2.5685718740 0.9720574163 0.0001020701
C -1.2380561995 0.2767967735 -0.0002393413
C -1.1534387730 -1.1188974797 0.0000965374
C 0.0975392028 -1.7152573098 0.0001725436
N 1.2518745334 -1.0362064434 -0.0000588671
C 1.1813379010 0.3001180467 -0.0003966749
C -0.0407377408 0.9826041831 -0.0005860544
C 2.4795332202 1.0581389884 0.0001909882
H -3.1512645673 0.6939924311 0.8847024407
H -2.4521673325 2.0581605602 -0.0057696282
H -3.1567868702 0.6847809692 -0.8778192933
H -2.0518393246 -1.7294054364 0.0001135663
H 0.1845799596 -2.8009286714 0.0002622119
H -0.0491588236 2.0697823918 -0.0010249666
H 2.5504340796 1.7121369362 -0.8755409085
H 2.5591547950 1.6946953334 0.8880530941
H 3.3169031875 0.3597818682 -0.0102598171
