24
 xtb: 6.7.1 (edcfbbe)
C           -2.19243397828054       -0.91169983247243       -0.13965229611311
C           -1.13784291405989       -0.31689209557531        0.79087466611915
H           -1.61215135866678       -0.28038335820654        1.77954706188705
C           -0.71969197018248        1.13831885049898        0.49551081862530
H           -1.56889129316540        1.64789107642635        0.02150498540127
C            0.48707969530577        1.25869828017692       -0.45237014059865
H            0.85294634091812        2.29113039669310       -0.38187625695081
C            1.60539924766727        0.30843274269069       -0.02392923701219
H            2.40175508230363        0.30788090278809       -0.78515467947220
C            1.08440811482091       -1.12944852305192        0.11855515581944
H            1.85506705554022       -1.75010099621791        0.60360020633730
O           -0.01938692669720       -1.21791623766366        0.98368802934980
O            0.86640683060963       -1.67157863683639       -1.17585496666054
O            2.10569660339373        0.80657570260004        1.22200256715712
O            0.08566477649199        1.00880345870756       -1.80845358660159
O           -0.46699433742693        1.84802819904640        1.70276013075794
O           -1.79572023107882       -1.06986299863900       -1.50339874534826
H           -3.09572889156996       -0.28579246089975       -0.07034694344313
H           -2.44446090584752       -1.91402819794833        0.21928752440570
H           -0.10333124162424       -1.72023980387643       -1.32513201540334
H            2.61956101948127        0.10902440445400        1.64658815298607
H            0.60653878204927        0.25871856955421       -2.13385735598090
H            0.40719211626426        1.56854346511354        2.01427742417162
H           -1.49525627084981       -0.19855579847424       -1.82022180385471
