21
CONF1
C -2.3550059174 0.1484312696 -1.2627184562
C -1.6987407166 -0.4253688913 -0.0003201978
C -2.3538491156 0.1450499007 1.2642276244
C -0.2005732028 -0.1969447820 -0.0004513068
C 0.3326937601 1.0961882195 0.0003400695
C 1.7072879580 1.3033108610 0.0006197652
C 2.5800113381 0.2180316861 0.0001072555
C 2.0641196562 -1.0730460703 -0.0007450748
C 0.6861974514 -1.2748372956 -0.0010261266
H -1.8979176291 -0.2651288540 -2.1664180210
H -2.2465371134 1.2375117963 -1.2992989793
H -3.4254850444 -0.0816554350 -1.2786828576
H -1.8591351498 -1.5113672984 -0.0017138237
H -1.8960950682 -0.2711708538 2.1663678769
H -3.4243871629 -0.0847466699 1.2804701273
H -2.2449293738 1.2339861901 1.3037488835
H -0.3331473424 1.9545357777 0.0007825841
H 2.0995713767 2.3156034350 0.0012669441
H 3.6531208556 0.3792496336 0.0003782620
H 2.7344296623 -1.9270049292 -0.0011709621
H 0.2909284580 -2.2873569895 -0.0016676733
