13
 xtb: 6.7.1 (edcfbbe)
C           -1.57969729139870        0.05835789679910        0.53370093114431
C           -0.65574009173995       -0.48777208188315       -0.55417105008000
C            0.67729151652995        0.25159073616363       -0.63870074362108
N            1.44948735734470        0.09490056063706        0.60518977150197
H           -1.75355807884385        1.13271132986808        0.40039212217117
H           -2.55264205627361       -0.44135964041144        0.51198136367173
H           -1.16041318884571       -0.09889507895332        1.53261399743993
H           -1.15428865881352       -0.41077200609234       -1.52857854268899
H           -0.45833598011305       -1.55109995260231       -0.37373580931145
H            1.27082483766835       -0.17822810697417       -1.45494708319930
H            0.48250837536071        1.30715427506989       -0.90596146044550
H            1.00226983844002        0.61485111345383        1.35260149325089
H            2.36660585476156        0.51231775319033        0.49245848534617
