16
CONF2
C 2.7614934821 -0.4256423205 0.5732607617
C 1.9352211601 0.1658881039 -0.5755475367
C 0.4611957848 0.0895588020 -0.2971700910
C -0.3128476477 1.2319670821 -0.0646127574
N -1.6176198855 1.1788569961 0.2054736735
C -2.1596678720 -0.0403719942 0.2435935083
C -1.4007762795 -1.1842894305 0.0126384444
N -0.0959778354 -1.1289006753 -0.2562180100
H 2.4712188255 -1.4643872565 0.7504397009
H 2.6014796989 0.1369053183 1.4982994010
H 3.8285673404 -0.3983181497 0.3356560412
H 2.1421407677 -0.3909152662 -1.4966514284
H 2.2199439298 1.2089680895 -0.7503547353
H 0.1427150198 2.2211476093 -0.1002999912
H -3.2240267854 -0.1072578606 0.4605951483
H -1.8583273263 -2.1720817128 0.0435437899
