27
CONF2
C 3.0710000755 1.7205290841 0.4671729532
C 1.7376283034 1.0819533281 0.2615410671
C 1.5423922836 -0.1944168105 -0.1451027321
C 0.2093669982 -0.7369240778 -0.3848090152
O 0.0144000162 -1.7923755031 -0.9569706903
N -0.8593370335 0.0663627558 0.1205874313
C -0.6966863650 1.4430389845 0.2691188460
O -1.5824310286 2.2793506375 0.2521732554
N 0.6230781282 1.8528114938 0.4682489726
C -2.2590795231 -0.5340277431 0.2068441048
C -3.1084557114 0.2377689745 1.2327939166
C -2.9068225697 -0.4868407244 -1.1772644228
C -2.1626009504 -1.9787081538 0.7318940211
Cl 2.8908412467 -1.2267733008 -0.4987328206
H 3.6472988813 1.1600165467 1.2087460480
H 2.9721627197 2.7538605938 0.8070046271
H 3.6467726827 1.7052609766 -0.4630671287
H 0.7189943714 2.8510340658 0.5787386503
H -3.9947791309 -0.3671037882 1.4409873917
H -2.5655197943 0.3672588584 2.1747566181
H -3.4266814816 1.2133518245 0.8761299674
H -3.9153244855 -0.9086029448 -1.1198557997
H -2.3254200135 -1.0707039554 -1.8946894446
H -2.9857734617 0.5469465161 -1.5256663054
H -3.1770748550 -2.3121943882 0.9649655901
H -1.7265083044 -2.6666779265 0.0133427686
H -1.5781689927 -2.0139038300 1.6574235474
