 xtb: 6.7.1 (edcfbbe)
          04152519133D

  9  8  0     0  0            999 V2000
   -1.3739   -0.6102    0.0666 C   0  0  0  0  0  0  0  0  0  0  0  0
   -0.0022    0.5204    0.4307 S   0  0  0  0  0  0  0  0  0  0  0  0
    1.3740   -0.5573   -0.0565 C   0  0  0  0  0  0  0  0  0  0  0  0
   -1.3652   -0.8634   -0.9901 H   0  0  0  0  0  0  0  0  0  0  0  0
   -2.2906   -0.0868    0.3159 H   0  0  0  0  0  0  0  0  0  0  0  0
   -1.2786   -1.5049    0.6759 H   0  0  0  0  0  0  0  0  0  0  0  0
    1.3681   -1.4539    0.5575 H   0  0  0  0  0  0  0  0  0  0  0  0
    2.2884    0.0015    0.1105 H   0  0  0  0  0  0  0  0  0  0  0  0
    1.2804   -0.8127   -1.1086 H   0  0  0  0  0  0  0  0  0  0  0  0
  1  2  1  0  0  0  0
  2  3  1  0  0  0  0
  1  4  1  0  0  0  0
  1  5  1  0  0  0  0
  1  6  1  0  0  0  0
  3  7  1  0  0  0  0
  3  8  1  0  0  0  0
  3  9  1  0  0  0  0
M  END
