 xtb: 6.7.1 (edcfbbe)
          04152520293D

 12 11  0     0  0            999 V2000
   -0.5034   -1.4097   -0.0007 C   0  0  0  0  0  0  0  0  0  0  0  0
   -0.4123    0.0306    0.0190 N   0  0  0  0  0  0  0  0  0  0  0  0
   -1.6440    0.7551   -0.1373 C   0  0  0  0  0  0  0  0  0  0  0  0
    0.7793    0.6289    0.1768 C   0  0  0  0  0  0  0  0  0  0  0  0
    1.8368    0.0608    0.3108 O   0  0  0  0  0  0  0  0  0  0  0  0
   -0.9144   -1.7535   -0.9525 H   0  0  0  0  0  0  0  0  0  0  0  0
   -1.1432   -1.7630    0.8111 H   0  0  0  0  0  0  0  0  0  0  0  0
    0.5009   -1.8088    0.1275 H   0  0  0  0  0  0  0  0  0  0  0  0
   -1.4519    1.8258   -0.1036 H   0  0  0  0  0  0  0  0  0  0  0  0
   -2.3423    0.4958    0.6634 H   0  0  0  0  0  0  0  0  0  0  0  0
   -2.1113    0.5098   -1.0952 H   0  0  0  0  0  0  0  0  0  0  0  0
    0.6940    1.7321    0.1717 H   0  0  0  0  0  0  0  0  0  0  0  0
  1  2  1  0  0  0  0
  2  3  1  0  0  0  0
  2  4  4  0  0  0  0
  4  5  2  0  0  0  0
  1  6  1  0  0  0  0
  1  7  1  0  0  0  0
  1  8  1  0  0  0  0
  3  9  1  0  0  0  0
  3 10  1  0  0  0  0
  3 11  1  0  0  0  0
  4 12  1  0  0  0  0
M  END
