16
CONF1
C -1.4824976149 0.0012964599 -0.2304137549
C -0.7314387320 -1.2507264914 0.2285563238
C 0.7232859190 -1.1795936425 -0.2216834227
O 1.3678578359 -0.0012349004 0.2616961555
C 0.7253642270 1.1782691496 -0.2216607296
C -0.7292177115 1.2519629956 0.2286128032
H -2.5087693026 0.0021921751 0.1525695081
H -1.5487863493 0.0013814703 -1.3276068390
H -0.7604121737 -1.3219242871 1.3230235755
H -1.1970962582 -2.1583498549 -0.1742762854
H 1.3048200169 -2.0214946457 0.1662012871
H 0.7758732212 -1.2034562409 -1.3255798363
H 1.3084027242 2.0191335199 0.1662135541
H 0.7779649334 1.2020411556 -1.3255588124
H -0.7580445196 1.3231592921 1.3230841471
H -1.1932685781 2.1604317269 -0.1741663016
