17
 xtb: 6.7.1 (edcfbbe)
C           -2.56857187512756        0.97205741672776        0.00010207010308
C           -1.23805620001221        0.27679677362163       -0.00023934127179
C           -1.15343877354950       -1.11889748023658        0.00009653743728
C            0.09753920280525       -1.71525731056286        0.00017254358455
N            1.25187453391614       -1.03620644385523       -0.00005886706793
C            1.18133790154784        0.30011804681381       -0.00039667490696
C           -0.04073774083771        0.98260418358438       -0.00058605436643
C            2.47953322132214        1.05813898887908        0.00019098822140
H           -3.15126456866767        0.69399243144288        0.88470244109547
H           -2.45216733355823        2.05816056106269       -0.00576962816127
H           -3.15678687163479        0.68478096949034       -0.87781929371879
H           -2.05183932554278       -1.72940543712438        0.00011356629582
H            0.18457995964380       -2.80092867266173        0.00026221190563
H           -0.04915882359603        2.06978239275584       -0.00102496658225
H            2.55043408077579        1.71213693691074       -0.87554090891156
H            2.55915479609708        1.69469533411413        0.88805309444744
H            3.31690318900577        0.35978186834681       -0.01025981714798
