 xtb: 6.7.1 (edcfbbe)
          04152520403D

 16 16  0     0  0            999 V2000
    2.4746    1.1746   -0.2896 C   0  0  0  0  0  0  0  0  0  0  0  0
    1.6991   -0.0937   -0.0331 C   0  0  0  0  0  0  0  0  0  0  0  0
    2.2500   -1.1531    0.1576 O   0  0  0  0  0  0  0  0  0  0  0  0
    0.2156    0.0163   -0.0261 C   0  0  0  0  0  0  0  0  0  0  0  0
   -0.4846    1.2066   -0.2192 C   0  0  0  0  0  0  0  0  0  0  0  0
   -1.8681    1.1802   -0.1900 C   0  0  0  0  0  0  0  0  0  0  0  0
   -2.5044   -0.0333    0.0312 C   0  0  0  0  0  0  0  0  0  0  0  0
   -1.8541   -1.1703    0.2157 N   0  0  0  0  0  0  0  0  0  0  0  0
   -0.5374   -1.1432    0.1874 C   0  0  0  0  0  0  0  0  0  0  0  0
    2.2543    1.9098    0.4817 H   0  0  0  0  0  0  0  0  0  0  0  0
    2.2038    1.5911   -1.2575 H   0  0  0  0  0  0  0  0  0  0  0  0
    3.5383    0.9515   -0.2787 H   0  0  0  0  0  0  0  0  0  0  0  0
    0.0320    2.1395   -0.3885 H   0  0  0  0  0  0  0  0  0  0  0  0
   -2.4421    2.0824   -0.3354 H   0  0  0  0  0  0  0  0  0  0  0  0
   -3.5839   -0.1019    0.0629 H   0  0  0  0  0  0  0  0  0  0  0  0
   -0.0308   -2.0868    0.3410 H   0  0  0  0  0  0  0  0  0  0  0  0
  1  2  1  0  0  0  0
  2  3  2  0  0  0  0
  2  4  1  0  0  0  0
  4  5  4  0  0  0  0
  5  6  4  0  0  0  0
  6  7  4  0  0  0  0
  7  8  4  0  0  0  0
  4  9  4  0  0  0  0
  8  9  4  0  0  0  0
  1 10  1  0  0  0  0
  1 11  1  0  0  0  0
  1 12  1  0  0  0  0
  5 13  1  0  0  0  0
  6 14  1  0  0  0  0
  7 15  1  0  0  0  0
  9 16  1  0  0  0  0
M  END
